
---------- Begin Simulation Statistics ----------
final_tick                                55654776000                       # Number of ticks from beginning of simulation (restored from checkpoints and never reset)
host_inst_rate                                 148955                       # Simulator instruction rate (inst/s)
host_mem_usage                                 719084                       # Number of bytes of host memory used
host_op_rate                                   162569                       # Simulator op (including micro ops) rate (op/s)
host_seconds                                   671.34                       # Real time elapsed on the host
host_tick_rate                               82900679                       # Simulator tick rate (ticks/s)
sim_freq                                 1000000000000                       # Frequency of simulated ticks
sim_insts                                   100000001                       # Number of instructions simulated
sim_ops                                     109139393                       # Number of ops (including micro ops) simulated
sim_seconds                                  0.055655                       # Number of seconds simulated
sim_ticks                                 55654776000                       # Number of ticks simulated
system.cpu.committedInsts                   100000001                       # Number of instructions committed
system.cpu.committedOps                     109139393                       # Number of ops (including micro ops) committed
system.cpu.cpi                               1.113096                       # CPI: cycles per instruction
system.cpu.discardedOps                        431149                       # Number of ops (including micro ops) which were discarded before commit
system.cpu.idleCycles                         3871200                       # Total number of cycles that the object has spent stopped
system.cpu.ipc                               0.898396                       # IPC: instructions per cycle
system.cpu.numCycles                        111309552                       # number of cpu cycles simulated
system.cpu.numFetchSuspends                         0                       # Number of times Execute suspended instruction fetching
system.cpu.numWorkItemsCompleted                    0                       # number of work items this cpu completed
system.cpu.numWorkItemsStarted                      0                       # number of work items this cpu started
system.cpu.op_class_0::No_OpClass                   0      0.00%      0.00% # Class of committed instruction
system.cpu.op_class_0::IntAlu                72222733     66.17%     66.17% # Class of committed instruction
system.cpu.op_class_0::IntMult                 547028      0.50%     66.68% # Class of committed instruction
system.cpu.op_class_0::IntDiv                       0      0.00%     66.68% # Class of committed instruction
system.cpu.op_class_0::FloatAdd                     0      0.00%     66.68% # Class of committed instruction
system.cpu.op_class_0::FloatCmp                     0      0.00%     66.68% # Class of committed instruction
system.cpu.op_class_0::FloatCvt                     0      0.00%     66.68% # Class of committed instruction
system.cpu.op_class_0::FloatMult                    0      0.00%     66.68% # Class of committed instruction
system.cpu.op_class_0::FloatMultAcc                 0      0.00%     66.68% # Class of committed instruction
system.cpu.op_class_0::FloatDiv                     0      0.00%     66.68% # Class of committed instruction
system.cpu.op_class_0::FloatMisc                    0      0.00%     66.68% # Class of committed instruction
system.cpu.op_class_0::FloatSqrt                    0      0.00%     66.68% # Class of committed instruction
system.cpu.op_class_0::SimdAdd                 231656      0.21%     66.89% # Class of committed instruction
system.cpu.op_class_0::SimdAddAcc                   0      0.00%     66.89% # Class of committed instruction
system.cpu.op_class_0::SimdAlu                 148482      0.14%     67.02% # Class of committed instruction
system.cpu.op_class_0::SimdCmp                 115828      0.11%     67.13% # Class of committed instruction
system.cpu.op_class_0::SimdCvt                      0      0.00%     67.13% # Class of committed instruction
system.cpu.op_class_0::SimdMisc                 42808      0.04%     67.17% # Class of committed instruction
system.cpu.op_class_0::SimdMult                     0      0.00%     67.17% # Class of committed instruction
system.cpu.op_class_0::SimdMultAcc                  0      0.00%     67.17% # Class of committed instruction
system.cpu.op_class_0::SimdShift                    0      0.00%     67.17% # Class of committed instruction
system.cpu.op_class_0::SimdShiftAcc                 0      0.00%     67.17% # Class of committed instruction
system.cpu.op_class_0::SimdDiv                      0      0.00%     67.17% # Class of committed instruction
system.cpu.op_class_0::SimdSqrt                     0      0.00%     67.17% # Class of committed instruction
system.cpu.op_class_0::SimdFloatAdd                 0      0.00%     67.17% # Class of committed instruction
system.cpu.op_class_0::SimdFloatAlu                 0      0.00%     67.17% # Class of committed instruction
system.cpu.op_class_0::SimdFloatCmp                 0      0.00%     67.17% # Class of committed instruction
system.cpu.op_class_0::SimdFloatCvt                 0      0.00%     67.17% # Class of committed instruction
system.cpu.op_class_0::SimdFloatDiv                 0      0.00%     67.17% # Class of committed instruction
system.cpu.op_class_0::SimdFloatMisc           159857      0.15%     67.32% # Class of committed instruction
system.cpu.op_class_0::SimdFloatMult                0      0.00%     67.32% # Class of committed instruction
system.cpu.op_class_0::SimdFloatMultAcc             0      0.00%     67.32% # Class of committed instruction
system.cpu.op_class_0::SimdFloatSqrt                0      0.00%     67.32% # Class of committed instruction
system.cpu.op_class_0::SimdReduceAdd                0      0.00%     67.32% # Class of committed instruction
system.cpu.op_class_0::SimdReduceAlu                0      0.00%     67.32% # Class of committed instruction
system.cpu.op_class_0::SimdReduceCmp                0      0.00%     67.32% # Class of committed instruction
system.cpu.op_class_0::SimdFloatReduceAdd            0      0.00%     67.32% # Class of committed instruction
system.cpu.op_class_0::SimdFloatReduceCmp            0      0.00%     67.32% # Class of committed instruction
system.cpu.op_class_0::SimdAes                      0      0.00%     67.32% # Class of committed instruction
system.cpu.op_class_0::SimdAesMix                   0      0.00%     67.32% # Class of committed instruction
system.cpu.op_class_0::SimdSha1Hash                 0      0.00%     67.32% # Class of committed instruction
system.cpu.op_class_0::SimdSha1Hash2                0      0.00%     67.32% # Class of committed instruction
system.cpu.op_class_0::SimdSha256Hash               0      0.00%     67.32% # Class of committed instruction
system.cpu.op_class_0::SimdSha256Hash2              0      0.00%     67.32% # Class of committed instruction
system.cpu.op_class_0::SimdShaSigma2                0      0.00%     67.32% # Class of committed instruction
system.cpu.op_class_0::SimdShaSigma3                0      0.00%     67.32% # Class of committed instruction
system.cpu.op_class_0::SimdPredAlu                  0      0.00%     67.32% # Class of committed instruction
system.cpu.op_class_0::MemRead               20932683     19.18%     86.50% # Class of committed instruction
system.cpu.op_class_0::MemWrite              14738318     13.50%    100.00% # Class of committed instruction
system.cpu.op_class_0::FloatMemRead                 0      0.00%    100.00% # Class of committed instruction
system.cpu.op_class_0::FloatMemWrite                0      0.00%    100.00% # Class of committed instruction
system.cpu.op_class_0::IprAccess                    0      0.00%    100.00% # Class of committed instruction
system.cpu.op_class_0::InstPrefetch                 0      0.00%    100.00% # Class of committed instruction
system.cpu.op_class_0::total                109139393                       # Class of committed instruction
system.cpu.tickCycles                       107438352                       # Number of cycles that the object actually ticked
system.cpu.workload.numSyscalls                    85                       # Number of system calls
system.membus.snoop_filter.hit_multi_requests            0                       # Number of requests hitting in the snoop filter with multiple (>1) holders of the requested data.
system.membus.snoop_filter.hit_multi_snoops            0                       # Number of snoops hitting in the snoop filter with multiple (>1) holders of the requested data.
system.membus.snoop_filter.hit_single_requests        24797                       # Number of requests hitting in the snoop filter with a single holder of the requested data.
system.membus.snoop_filter.hit_single_snoops            0                       # Number of snoops hitting in the snoop filter with a single holder of the requested data.
system.membus.snoop_filter.tot_requests         66380                       # Total number of requests made to the snoop filter.
system.membus.snoop_filter.tot_snoops               0                       # Total number of snoops made to the snoop filter.
system.tol2bus.snoop_filter.hit_multi_requests           17                       # Number of requests hitting in the snoop filter with multiple (>1) holders of the requested data.
system.tol2bus.snoop_filter.hit_multi_snoops            2                       # Number of snoops hitting in the snoop filter with multiple (>1) holders of the requested data.
system.tol2bus.snoop_filter.hit_single_requests        51914                       # Number of requests hitting in the snoop filter with a single holder of the requested data.
system.tol2bus.snoop_filter.hit_single_snoops          427                       # Number of snoops hitting in the snoop filter with a single holder of the requested data.
system.tol2bus.snoop_filter.tot_requests       105238                       # Total number of requests made to the snoop filter.
system.tol2bus.snoop_filter.tot_snoops            429                       # Total number of snoops made to the snoop filter.
system.clk_domain.clock                          1000                       # Clock period in ticks
system.cpu.branchPred.lookups                19659295                       # Number of BP lookups
system.cpu.branchPred.condPredicted          15818911                       # Number of conditional branches predicted
system.cpu.branchPred.condIncorrect             88865                       # Number of conditional branches incorrect
system.cpu.branchPred.BTBLookups              8076166                       # Number of BTB lookups
system.cpu.branchPred.BTBHits                 8062911                       # Number of BTB hits
system.cpu.branchPred.BTBHitPct             99.835875                       # BTB Hit Percentage
system.cpu.branchPred.RASUsed                 1050623                       # Number of times the RAS was used to get a target.
system.cpu.branchPred.RASIncorrect                468                       # Number of incorrect RAS predictions.
system.cpu.branchPred.indirectLookups          422617                       # Number of indirect predictor lookups.
system.cpu.branchPred.indirectHits             287881                       # Number of indirect target hits.
system.cpu.branchPred.indirectMisses           134736                       # Number of indirect misses.
system.cpu.branchPred.indirectMispredicted          993                       # Number of mispredicted indirect branches.
system.cpu.dcache.demand_hits::.cpu.data     35098777                       # number of demand (read+write) hits
system.cpu.dcache.demand_hits::total         35098777                       # number of demand (read+write) hits
system.cpu.dcache.overall_hits::.cpu.data     35101861                       # number of overall hits
system.cpu.dcache.overall_hits::total        35101861                       # number of overall hits
system.cpu.dcache.demand_misses::.cpu.data        71649                       # number of demand (read+write) misses
system.cpu.dcache.demand_misses::total          71649                       # number of demand (read+write) misses
system.cpu.dcache.overall_misses::.cpu.data        71694                       # number of overall misses
system.cpu.dcache.overall_misses::total         71694                       # number of overall misses
system.cpu.dcache.demand_miss_latency::.cpu.data   4594711500                       # number of demand (read+write) miss cycles
system.cpu.dcache.demand_miss_latency::total   4594711500                       # number of demand (read+write) miss cycles
system.cpu.dcache.overall_miss_latency::.cpu.data   4594711500                       # number of overall miss cycles
system.cpu.dcache.overall_miss_latency::total   4594711500                       # number of overall miss cycles
system.cpu.dcache.demand_accesses::.cpu.data     35170426                       # number of demand (read+write) accesses
system.cpu.dcache.demand_accesses::total     35170426                       # number of demand (read+write) accesses
system.cpu.dcache.overall_accesses::.cpu.data     35173555                       # number of overall (read+write) accesses
system.cpu.dcache.overall_accesses::total     35173555                       # number of overall (read+write) accesses
system.cpu.dcache.demand_miss_rate::.cpu.data     0.002037                       # miss rate for demand accesses
system.cpu.dcache.demand_miss_rate::total     0.002037                       # miss rate for demand accesses
system.cpu.dcache.overall_miss_rate::.cpu.data     0.002038                       # miss rate for overall accesses
system.cpu.dcache.overall_miss_rate::total     0.002038                       # miss rate for overall accesses
system.cpu.dcache.demand_avg_miss_latency::.cpu.data 64128.061801                       # average overall miss latency
system.cpu.dcache.demand_avg_miss_latency::total 64128.061801                       # average overall miss latency
system.cpu.dcache.overall_avg_miss_latency::.cpu.data 64087.810695                       # average overall miss latency
system.cpu.dcache.overall_avg_miss_latency::total 64087.810695                       # average overall miss latency
system.cpu.dcache.blocked_cycles::no_mshrs            0                       # number of cycles access was blocked
system.cpu.dcache.blocked_cycles::no_targets            0                       # number of cycles access was blocked
system.cpu.dcache.blocked::no_mshrs                 0                       # number of cycles access was blocked
system.cpu.dcache.blocked::no_targets               0                       # number of cycles access was blocked
system.cpu.dcache.avg_blocked_cycles::no_mshrs          nan                       # average number of cycles each access was blocked
system.cpu.dcache.avg_blocked_cycles::no_targets          nan                       # average number of cycles each access was blocked
system.cpu.dcache.writebacks::.writebacks        48456                       # number of writebacks
system.cpu.dcache.writebacks::total             48456                       # number of writebacks
system.cpu.dcache.demand_mshr_hits::.cpu.data        19357                       # number of demand (read+write) MSHR hits
system.cpu.dcache.demand_mshr_hits::total        19357                       # number of demand (read+write) MSHR hits
system.cpu.dcache.overall_mshr_hits::.cpu.data        19357                       # number of overall MSHR hits
system.cpu.dcache.overall_mshr_hits::total        19357                       # number of overall MSHR hits
system.cpu.dcache.demand_mshr_misses::.cpu.data        52292                       # number of demand (read+write) MSHR misses
system.cpu.dcache.demand_mshr_misses::total        52292                       # number of demand (read+write) MSHR misses
system.cpu.dcache.overall_mshr_misses::.cpu.data        52329                       # number of overall MSHR misses
system.cpu.dcache.overall_mshr_misses::total        52329                       # number of overall MSHR misses
system.cpu.dcache.demand_mshr_miss_latency::.cpu.data   3471370000                       # number of demand (read+write) MSHR miss cycles
system.cpu.dcache.demand_mshr_miss_latency::total   3471370000                       # number of demand (read+write) MSHR miss cycles
system.cpu.dcache.overall_mshr_miss_latency::.cpu.data   3472933000                       # number of overall MSHR miss cycles
system.cpu.dcache.overall_mshr_miss_latency::total   3472933000                       # number of overall MSHR miss cycles
system.cpu.dcache.demand_mshr_miss_rate::.cpu.data     0.001487                       # mshr miss rate for demand accesses
system.cpu.dcache.demand_mshr_miss_rate::total     0.001487                       # mshr miss rate for demand accesses
system.cpu.dcache.overall_mshr_miss_rate::.cpu.data     0.001488                       # mshr miss rate for overall accesses
system.cpu.dcache.overall_mshr_miss_rate::total     0.001488                       # mshr miss rate for overall accesses
system.cpu.dcache.demand_avg_mshr_miss_latency::.cpu.data 66384.341773                       # average overall mshr miss latency
system.cpu.dcache.demand_avg_mshr_miss_latency::total 66384.341773                       # average overall mshr miss latency
system.cpu.dcache.overall_avg_mshr_miss_latency::.cpu.data 66367.272449                       # average overall mshr miss latency
system.cpu.dcache.overall_avg_mshr_miss_latency::total 66367.272449                       # average overall mshr miss latency
system.cpu.dcache.replacements                  51305                       # number of replacements
system.cpu.dcache.ReadReq_hits::.cpu.data     20886352                       # number of ReadReq hits
system.cpu.dcache.ReadReq_hits::total        20886352                       # number of ReadReq hits
system.cpu.dcache.ReadReq_misses::.cpu.data        17153                       # number of ReadReq misses
system.cpu.dcache.ReadReq_misses::total         17153                       # number of ReadReq misses
system.cpu.dcache.ReadReq_miss_latency::.cpu.data    482891500                       # number of ReadReq miss cycles
system.cpu.dcache.ReadReq_miss_latency::total    482891500                       # number of ReadReq miss cycles
system.cpu.dcache.ReadReq_accesses::.cpu.data     20903505                       # number of ReadReq accesses(hits+misses)
system.cpu.dcache.ReadReq_accesses::total     20903505                       # number of ReadReq accesses(hits+misses)
system.cpu.dcache.ReadReq_miss_rate::.cpu.data     0.000821                       # miss rate for ReadReq accesses
system.cpu.dcache.ReadReq_miss_rate::total     0.000821                       # miss rate for ReadReq accesses
system.cpu.dcache.ReadReq_avg_miss_latency::.cpu.data 28152.014225                       # average ReadReq miss latency
system.cpu.dcache.ReadReq_avg_miss_latency::total 28152.014225                       # average ReadReq miss latency
system.cpu.dcache.ReadReq_mshr_hits::.cpu.data         2824                       # number of ReadReq MSHR hits
system.cpu.dcache.ReadReq_mshr_hits::total         2824                       # number of ReadReq MSHR hits
system.cpu.dcache.ReadReq_mshr_misses::.cpu.data        14329                       # number of ReadReq MSHR misses
system.cpu.dcache.ReadReq_mshr_misses::total        14329                       # number of ReadReq MSHR misses
system.cpu.dcache.ReadReq_mshr_miss_latency::.cpu.data    420389000                       # number of ReadReq MSHR miss cycles
system.cpu.dcache.ReadReq_mshr_miss_latency::total    420389000                       # number of ReadReq MSHR miss cycles
system.cpu.dcache.ReadReq_mshr_miss_rate::.cpu.data     0.000685                       # mshr miss rate for ReadReq accesses
system.cpu.dcache.ReadReq_mshr_miss_rate::total     0.000685                       # mshr miss rate for ReadReq accesses
system.cpu.dcache.ReadReq_avg_mshr_miss_latency::.cpu.data 29338.334845                       # average ReadReq mshr miss latency
system.cpu.dcache.ReadReq_avg_mshr_miss_latency::total 29338.334845                       # average ReadReq mshr miss latency
system.cpu.dcache.WriteReq_hits::.cpu.data     14212425                       # number of WriteReq hits
system.cpu.dcache.WriteReq_hits::total       14212425                       # number of WriteReq hits
system.cpu.dcache.WriteReq_misses::.cpu.data        54496                       # number of WriteReq misses
system.cpu.dcache.WriteReq_misses::total        54496                       # number of WriteReq misses
system.cpu.dcache.WriteReq_miss_latency::.cpu.data   4111820000                       # number of WriteReq miss cycles
system.cpu.dcache.WriteReq_miss_latency::total   4111820000                       # number of WriteReq miss cycles
system.cpu.dcache.WriteReq_accesses::.cpu.data     14266921                       # number of WriteReq accesses(hits+misses)
system.cpu.dcache.WriteReq_accesses::total     14266921                       # number of WriteReq accesses(hits+misses)
system.cpu.dcache.WriteReq_miss_rate::.cpu.data     0.003820                       # miss rate for WriteReq accesses
system.cpu.dcache.WriteReq_miss_rate::total     0.003820                       # miss rate for WriteReq accesses
system.cpu.dcache.WriteReq_avg_miss_latency::.cpu.data 75451.776277                       # average WriteReq miss latency
system.cpu.dcache.WriteReq_avg_miss_latency::total 75451.776277                       # average WriteReq miss latency
system.cpu.dcache.WriteReq_mshr_hits::.cpu.data        16533                       # number of WriteReq MSHR hits
system.cpu.dcache.WriteReq_mshr_hits::total        16533                       # number of WriteReq MSHR hits
system.cpu.dcache.WriteReq_mshr_misses::.cpu.data        37963                       # number of WriteReq MSHR misses
system.cpu.dcache.WriteReq_mshr_misses::total        37963                       # number of WriteReq MSHR misses
system.cpu.dcache.WriteReq_mshr_miss_latency::.cpu.data   3050981000                       # number of WriteReq MSHR miss cycles
system.cpu.dcache.WriteReq_mshr_miss_latency::total   3050981000                       # number of WriteReq MSHR miss cycles
system.cpu.dcache.WriteReq_mshr_miss_rate::.cpu.data     0.002661                       # mshr miss rate for WriteReq accesses
system.cpu.dcache.WriteReq_mshr_miss_rate::total     0.002661                       # mshr miss rate for WriteReq accesses
system.cpu.dcache.WriteReq_avg_mshr_miss_latency::.cpu.data 80367.225983                       # average WriteReq mshr miss latency
system.cpu.dcache.WriteReq_avg_mshr_miss_latency::total 80367.225983                       # average WriteReq mshr miss latency
system.cpu.dcache.SoftPFReq_hits::.cpu.data         3084                       # number of SoftPFReq hits
system.cpu.dcache.SoftPFReq_hits::total          3084                       # number of SoftPFReq hits
system.cpu.dcache.SoftPFReq_misses::.cpu.data           45                       # number of SoftPFReq misses
system.cpu.dcache.SoftPFReq_misses::total           45                       # number of SoftPFReq misses
system.cpu.dcache.SoftPFReq_accesses::.cpu.data         3129                       # number of SoftPFReq accesses(hits+misses)
system.cpu.dcache.SoftPFReq_accesses::total         3129                       # number of SoftPFReq accesses(hits+misses)
system.cpu.dcache.SoftPFReq_miss_rate::.cpu.data     0.014382                       # miss rate for SoftPFReq accesses
system.cpu.dcache.SoftPFReq_miss_rate::total     0.014382                       # miss rate for SoftPFReq accesses
system.cpu.dcache.SoftPFReq_mshr_misses::.cpu.data           37                       # number of SoftPFReq MSHR misses
system.cpu.dcache.SoftPFReq_mshr_misses::total           37                       # number of SoftPFReq MSHR misses
system.cpu.dcache.SoftPFReq_mshr_miss_latency::.cpu.data      1563000                       # number of SoftPFReq MSHR miss cycles
system.cpu.dcache.SoftPFReq_mshr_miss_latency::total      1563000                       # number of SoftPFReq MSHR miss cycles
system.cpu.dcache.SoftPFReq_mshr_miss_rate::.cpu.data     0.011825                       # mshr miss rate for SoftPFReq accesses
system.cpu.dcache.SoftPFReq_mshr_miss_rate::total     0.011825                       # mshr miss rate for SoftPFReq accesses
system.cpu.dcache.SoftPFReq_avg_mshr_miss_latency::.cpu.data 42243.243243                       # average SoftPFReq mshr miss latency
system.cpu.dcache.SoftPFReq_avg_mshr_miss_latency::total 42243.243243                       # average SoftPFReq mshr miss latency
system.cpu.dcache.LoadLockedReq_hits::.cpu.data        85610                       # number of LoadLockedReq hits
system.cpu.dcache.LoadLockedReq_hits::total        85610                       # number of LoadLockedReq hits
system.cpu.dcache.LoadLockedReq_accesses::.cpu.data        85610                       # number of LoadLockedReq accesses(hits+misses)
system.cpu.dcache.LoadLockedReq_accesses::total        85610                       # number of LoadLockedReq accesses(hits+misses)
system.cpu.dcache.StoreCondReq_hits::.cpu.data        85610                       # number of StoreCondReq hits
system.cpu.dcache.StoreCondReq_hits::total        85610                       # number of StoreCondReq hits
system.cpu.dcache.StoreCondReq_accesses::.cpu.data        85610                       # number of StoreCondReq accesses(hits+misses)
system.cpu.dcache.StoreCondReq_accesses::total        85610                       # number of StoreCondReq accesses(hits+misses)
system.cpu.dcache.power_state.pwrStateResidencyTicks::UNDEFINED  55654776000                       # Cumulative time (in ticks) in various power states
system.cpu.dcache.tags.tagsinuse          1020.288622                       # Cycle average of tags in use
system.cpu.dcache.tags.total_refs            35325410                       # Total number of references to valid blocks.
system.cpu.dcache.tags.sampled_refs             52329                       # Sample count of references to valid blocks.
system.cpu.dcache.tags.avg_refs            675.063731                       # Average number of references to valid blocks.
system.cpu.dcache.tags.warmup_cycle            176500                       # Cycle when the warmup percentage was hit.
system.cpu.dcache.tags.occ_blocks::.cpu.data  1020.288622                       # Average occupied blocks per requestor
system.cpu.dcache.tags.occ_percent::.cpu.data     0.996376                       # Average percentage of cache occupancy
system.cpu.dcache.tags.occ_percent::total     0.996376                       # Average percentage of cache occupancy
system.cpu.dcache.tags.occ_task_id_blocks::1024         1024                       # Occupied blocks per task id
system.cpu.dcache.tags.age_task_id_blocks_1024::0            7                       # Occupied blocks per task id
system.cpu.dcache.tags.age_task_id_blocks_1024::1           47                       # Occupied blocks per task id
system.cpu.dcache.tags.age_task_id_blocks_1024::2          456                       # Occupied blocks per task id
system.cpu.dcache.tags.age_task_id_blocks_1024::3          470                       # Occupied blocks per task id
system.cpu.dcache.tags.age_task_id_blocks_1024::4           44                       # Occupied blocks per task id
system.cpu.dcache.tags.occ_task_id_percent::1024            1                       # Percentage of cache occupancy per task id
system.cpu.dcache.tags.tag_accesses          70741879                       # Number of tag accesses
system.cpu.dcache.tags.data_accesses         70741879                       # Number of data accesses
system.cpu.dcache.tags.power_state.pwrStateResidencyTicks::UNDEFINED  55654776000                       # Cumulative time (in ticks) in various power states
system.cpu.dtb.instHits                             0                       # ITB inst hits
system.cpu.dtb.instMisses                           0                       # ITB inst misses
system.cpu.dtb.readHits                             0                       # DTB read hits
system.cpu.dtb.readMisses                           0                       # DTB read misses
system.cpu.dtb.writeHits                            0                       # DTB write hits
system.cpu.dtb.writeMisses                          0                       # DTB write misses
system.cpu.dtb.inserts                              0                       # Number of times an entry is inserted into the TLB
system.cpu.dtb.flushTlb                             0                       # Number of times complete TLB was flushed
system.cpu.dtb.flushTlbMva                          0                       # Number of times TLB was flushed by MVA
system.cpu.dtb.flushTlbMvaAsid                      0                       # Number of times TLB was flushed by MVA & ASID
system.cpu.dtb.flushTlbAsid                         0                       # Number of times TLB was flushed by ASID
system.cpu.dtb.flushedEntries                       0                       # Number of entries that have been flushed from TLB
system.cpu.dtb.alignFaults                          0                       # Number of TLB faults due to alignment restrictions
system.cpu.dtb.prefetchFaults                       0                       # Number of TLB faults due to prefetch
system.cpu.dtb.domainFaults                         0                       # Number of TLB faults due to domain restrictions
system.cpu.dtb.permsFaults                          0                       # Number of TLB faults due to permissions restrictions
system.cpu.dtb.readAccesses                         0                       # DTB read accesses
system.cpu.dtb.writeAccesses                        0                       # DTB write accesses
system.cpu.dtb.instAccesses                         0                       # ITB inst accesses
system.cpu.dtb.hits                                 0                       # Total TLB (inst and data) hits
system.cpu.dtb.misses                               0                       # Total TLB (inst and data) misses
system.cpu.dtb.accesses                             0                       # Total TLB (inst and data) accesses
system.cpu.dtb.stage2_mmu.stage2_tlb.instHits            0                       # ITB inst hits
system.cpu.dtb.stage2_mmu.stage2_tlb.instMisses            0                       # ITB inst misses
system.cpu.dtb.stage2_mmu.stage2_tlb.readHits            0                       # DTB read hits
system.cpu.dtb.stage2_mmu.stage2_tlb.readMisses            0                       # DTB read misses
system.cpu.dtb.stage2_mmu.stage2_tlb.writeHits            0                       # DTB write hits
system.cpu.dtb.stage2_mmu.stage2_tlb.writeMisses            0                       # DTB write misses
system.cpu.dtb.stage2_mmu.stage2_tlb.inserts            0                       # Number of times an entry is inserted into the TLB
system.cpu.dtb.stage2_mmu.stage2_tlb.flushTlb            0                       # Number of times complete TLB was flushed
system.cpu.dtb.stage2_mmu.stage2_tlb.flushTlbMva            0                       # Number of times TLB was flushed by MVA
system.cpu.dtb.stage2_mmu.stage2_tlb.flushTlbMvaAsid            0                       # Number of times TLB was flushed by MVA & ASID
system.cpu.dtb.stage2_mmu.stage2_tlb.flushTlbAsid            0                       # Number of times TLB was flushed by ASID
system.cpu.dtb.stage2_mmu.stage2_tlb.flushedEntries            0                       # Number of entries that have been flushed from TLB
system.cpu.dtb.stage2_mmu.stage2_tlb.alignFaults            0                       # Number of TLB faults due to alignment restrictions
system.cpu.dtb.stage2_mmu.stage2_tlb.prefetchFaults            0                       # Number of TLB faults due to prefetch
system.cpu.dtb.stage2_mmu.stage2_tlb.domainFaults            0                       # Number of TLB faults due to domain restrictions
system.cpu.dtb.stage2_mmu.stage2_tlb.permsFaults            0                       # Number of TLB faults due to permissions restrictions
system.cpu.dtb.stage2_mmu.stage2_tlb.readAccesses            0                       # DTB read accesses
system.cpu.dtb.stage2_mmu.stage2_tlb.writeAccesses            0                       # DTB write accesses
system.cpu.dtb.stage2_mmu.stage2_tlb.instAccesses            0                       # ITB inst accesses
system.cpu.dtb.stage2_mmu.stage2_tlb.hits            0                       # Total TLB (inst and data) hits
system.cpu.dtb.stage2_mmu.stage2_tlb.misses            0                       # Total TLB (inst and data) misses
system.cpu.dtb.stage2_mmu.stage2_tlb.accesses            0                       # Total TLB (inst and data) accesses
system.cpu.dtb.stage2_mmu.stage2_tlb.walker.walks            0                       # Table walker walks requested
system.cpu.dtb.stage2_mmu.stage2_tlb.walker.requestOrigin_Requested::Data            0                       # Table walker requests started/completed, data/inst
system.cpu.dtb.stage2_mmu.stage2_tlb.walker.requestOrigin_Requested::Inst            0                       # Table walker requests started/completed, data/inst
system.cpu.dtb.stage2_mmu.stage2_tlb.walker.requestOrigin_Requested::total            0                       # Table walker requests started/completed, data/inst
system.cpu.dtb.stage2_mmu.stage2_tlb.walker.requestOrigin_Completed::Data            0                       # Table walker requests started/completed, data/inst
system.cpu.dtb.stage2_mmu.stage2_tlb.walker.requestOrigin_Completed::Inst            0                       # Table walker requests started/completed, data/inst
system.cpu.dtb.stage2_mmu.stage2_tlb.walker.requestOrigin_Completed::total            0                       # Table walker requests started/completed, data/inst
system.cpu.dtb.stage2_mmu.stage2_tlb.walker.requestOrigin::total            0                       # Table walker requests started/completed, data/inst
system.cpu.dtb.stage2_mmu.stage2_tlb.walker.power_state.pwrStateResidencyTicks::UNDEFINED  55654776000                       # Cumulative time (in ticks) in various power states
system.cpu.dtb.walker.walks                         0                       # Table walker walks requested
system.cpu.dtb.walker.requestOrigin_Requested::Data            0                       # Table walker requests started/completed, data/inst
system.cpu.dtb.walker.requestOrigin_Requested::Inst            0                       # Table walker requests started/completed, data/inst
system.cpu.dtb.walker.requestOrigin_Requested::total            0                       # Table walker requests started/completed, data/inst
system.cpu.dtb.walker.requestOrigin_Completed::Data            0                       # Table walker requests started/completed, data/inst
system.cpu.dtb.walker.requestOrigin_Completed::Inst            0                       # Table walker requests started/completed, data/inst
system.cpu.dtb.walker.requestOrigin_Completed::total            0                       # Table walker requests started/completed, data/inst
system.cpu.dtb.walker.requestOrigin::total            0                       # Table walker requests started/completed, data/inst
system.cpu.dtb.walker.power_state.pwrStateResidencyTicks::UNDEFINED  55654776000                       # Cumulative time (in ticks) in various power states
system.cpu.fetch2.intInstructions            49125015                       # Number of integer instructions successfully decoded
system.cpu.fetch2.fpInstructions                    0                       # Number of floating point instructions successfully decoded
system.cpu.fetch2.vecInstructions                   0                       # Number of SIMD instructions successfully decoded
system.cpu.fetch2.loadInstructions           17532195                       # Number of memory load instructions successfully decoded
system.cpu.fetch2.storeInstructions          10086723                       # Number of memory store instructions successfully decoded
system.cpu.fetch2.amoInstructions                   0                       # Number of memory atomic instructions successfully decoded
system.cpu.icache.demand_hits::.cpu.inst     27008390                       # number of demand (read+write) hits
system.cpu.icache.demand_hits::total         27008390                       # number of demand (read+write) hits
system.cpu.icache.overall_hits::.cpu.inst     27008390                       # number of overall hits
system.cpu.icache.overall_hits::total        27008390                       # number of overall hits
system.cpu.icache.demand_misses::.cpu.inst          997                       # number of demand (read+write) misses
system.cpu.icache.demand_misses::total            997                       # number of demand (read+write) misses
system.cpu.icache.overall_misses::.cpu.inst          997                       # number of overall misses
system.cpu.icache.overall_misses::total           997                       # number of overall misses
system.cpu.icache.demand_miss_latency::.cpu.inst     46344000                       # number of demand (read+write) miss cycles
system.cpu.icache.demand_miss_latency::total     46344000                       # number of demand (read+write) miss cycles
system.cpu.icache.overall_miss_latency::.cpu.inst     46344000                       # number of overall miss cycles
system.cpu.icache.overall_miss_latency::total     46344000                       # number of overall miss cycles
system.cpu.icache.demand_accesses::.cpu.inst     27009387                       # number of demand (read+write) accesses
system.cpu.icache.demand_accesses::total     27009387                       # number of demand (read+write) accesses
system.cpu.icache.overall_accesses::.cpu.inst     27009387                       # number of overall (read+write) accesses
system.cpu.icache.overall_accesses::total     27009387                       # number of overall (read+write) accesses
system.cpu.icache.demand_miss_rate::.cpu.inst     0.000037                       # miss rate for demand accesses
system.cpu.icache.demand_miss_rate::total     0.000037                       # miss rate for demand accesses
system.cpu.icache.overall_miss_rate::.cpu.inst     0.000037                       # miss rate for overall accesses
system.cpu.icache.overall_miss_rate::total     0.000037                       # miss rate for overall accesses
system.cpu.icache.demand_avg_miss_latency::.cpu.inst 46483.450351                       # average overall miss latency
system.cpu.icache.demand_avg_miss_latency::total 46483.450351                       # average overall miss latency
system.cpu.icache.overall_avg_miss_latency::.cpu.inst 46483.450351                       # average overall miss latency
system.cpu.icache.overall_avg_miss_latency::total 46483.450351                       # average overall miss latency
system.cpu.icache.blocked_cycles::no_mshrs            0                       # number of cycles access was blocked
system.cpu.icache.blocked_cycles::no_targets            0                       # number of cycles access was blocked
system.cpu.icache.blocked::no_mshrs                 0                       # number of cycles access was blocked
system.cpu.icache.blocked::no_targets               0                       # number of cycles access was blocked
system.cpu.icache.avg_blocked_cycles::no_mshrs          nan                       # average number of cycles each access was blocked
system.cpu.icache.avg_blocked_cycles::no_targets          nan                       # average number of cycles each access was blocked
system.cpu.icache.writebacks::.writebacks          607                       # number of writebacks
system.cpu.icache.writebacks::total               607                       # number of writebacks
system.cpu.icache.demand_mshr_misses::.cpu.inst          997                       # number of demand (read+write) MSHR misses
system.cpu.icache.demand_mshr_misses::total          997                       # number of demand (read+write) MSHR misses
system.cpu.icache.overall_mshr_misses::.cpu.inst          997                       # number of overall MSHR misses
system.cpu.icache.overall_mshr_misses::total          997                       # number of overall MSHR misses
system.cpu.icache.demand_mshr_miss_latency::.cpu.inst     45347000                       # number of demand (read+write) MSHR miss cycles
system.cpu.icache.demand_mshr_miss_latency::total     45347000                       # number of demand (read+write) MSHR miss cycles
system.cpu.icache.overall_mshr_miss_latency::.cpu.inst     45347000                       # number of overall MSHR miss cycles
system.cpu.icache.overall_mshr_miss_latency::total     45347000                       # number of overall MSHR miss cycles
system.cpu.icache.demand_mshr_miss_rate::.cpu.inst     0.000037                       # mshr miss rate for demand accesses
system.cpu.icache.demand_mshr_miss_rate::total     0.000037                       # mshr miss rate for demand accesses
system.cpu.icache.overall_mshr_miss_rate::.cpu.inst     0.000037                       # mshr miss rate for overall accesses
system.cpu.icache.overall_mshr_miss_rate::total     0.000037                       # mshr miss rate for overall accesses
system.cpu.icache.demand_avg_mshr_miss_latency::.cpu.inst 45483.450351                       # average overall mshr miss latency
system.cpu.icache.demand_avg_mshr_miss_latency::total 45483.450351                       # average overall mshr miss latency
system.cpu.icache.overall_avg_mshr_miss_latency::.cpu.inst 45483.450351                       # average overall mshr miss latency
system.cpu.icache.overall_avg_mshr_miss_latency::total 45483.450351                       # average overall mshr miss latency
system.cpu.icache.replacements                    607                       # number of replacements
system.cpu.icache.ReadReq_hits::.cpu.inst     27008390                       # number of ReadReq hits
system.cpu.icache.ReadReq_hits::total        27008390                       # number of ReadReq hits
system.cpu.icache.ReadReq_misses::.cpu.inst          997                       # number of ReadReq misses
system.cpu.icache.ReadReq_misses::total           997                       # number of ReadReq misses
system.cpu.icache.ReadReq_miss_latency::.cpu.inst     46344000                       # number of ReadReq miss cycles
system.cpu.icache.ReadReq_miss_latency::total     46344000                       # number of ReadReq miss cycles
system.cpu.icache.ReadReq_accesses::.cpu.inst     27009387                       # number of ReadReq accesses(hits+misses)
system.cpu.icache.ReadReq_accesses::total     27009387                       # number of ReadReq accesses(hits+misses)
system.cpu.icache.ReadReq_miss_rate::.cpu.inst     0.000037                       # miss rate for ReadReq accesses
system.cpu.icache.ReadReq_miss_rate::total     0.000037                       # miss rate for ReadReq accesses
system.cpu.icache.ReadReq_avg_miss_latency::.cpu.inst 46483.450351                       # average ReadReq miss latency
system.cpu.icache.ReadReq_avg_miss_latency::total 46483.450351                       # average ReadReq miss latency
system.cpu.icache.ReadReq_mshr_misses::.cpu.inst          997                       # number of ReadReq MSHR misses
system.cpu.icache.ReadReq_mshr_misses::total          997                       # number of ReadReq MSHR misses
system.cpu.icache.ReadReq_mshr_miss_latency::.cpu.inst     45347000                       # number of ReadReq MSHR miss cycles
system.cpu.icache.ReadReq_mshr_miss_latency::total     45347000                       # number of ReadReq MSHR miss cycles
system.cpu.icache.ReadReq_mshr_miss_rate::.cpu.inst     0.000037                       # mshr miss rate for ReadReq accesses
system.cpu.icache.ReadReq_mshr_miss_rate::total     0.000037                       # mshr miss rate for ReadReq accesses
system.cpu.icache.ReadReq_avg_mshr_miss_latency::.cpu.inst 45483.450351                       # average ReadReq mshr miss latency
system.cpu.icache.ReadReq_avg_mshr_miss_latency::total 45483.450351                       # average ReadReq mshr miss latency
system.cpu.icache.power_state.pwrStateResidencyTicks::UNDEFINED  55654776000                       # Cumulative time (in ticks) in various power states
system.cpu.icache.tags.tagsinuse           389.556657                       # Cycle average of tags in use
system.cpu.icache.tags.total_refs            27009387                       # Total number of references to valid blocks.
system.cpu.icache.tags.sampled_refs               997                       # Sample count of references to valid blocks.
system.cpu.icache.tags.avg_refs          27090.658977                       # Average number of references to valid blocks.
system.cpu.icache.tags.warmup_cycle             87500                       # Cycle when the warmup percentage was hit.
system.cpu.icache.tags.occ_blocks::.cpu.inst   389.556657                       # Average occupied blocks per requestor
system.cpu.icache.tags.occ_percent::.cpu.inst     0.760853                       # Average percentage of cache occupancy
system.cpu.icache.tags.occ_percent::total     0.760853                       # Average percentage of cache occupancy
system.cpu.icache.tags.occ_task_id_blocks::1024          390                       # Occupied blocks per task id
system.cpu.icache.tags.age_task_id_blocks_1024::1            4                       # Occupied blocks per task id
system.cpu.icache.tags.age_task_id_blocks_1024::4          386                       # Occupied blocks per task id
system.cpu.icache.tags.occ_task_id_percent::1024     0.761719                       # Percentage of cache occupancy per task id
system.cpu.icache.tags.tag_accesses          54019771                       # Number of tag accesses
system.cpu.icache.tags.data_accesses         54019771                       # Number of data accesses
system.cpu.icache.tags.power_state.pwrStateResidencyTicks::UNDEFINED  55654776000                       # Cumulative time (in ticks) in various power states
system.cpu.itb.instHits                             0                       # ITB inst hits
system.cpu.itb.instMisses                           0                       # ITB inst misses
system.cpu.itb.readHits                             0                       # DTB read hits
system.cpu.itb.readMisses                           0                       # DTB read misses
system.cpu.itb.writeHits                            0                       # DTB write hits
system.cpu.itb.writeMisses                          0                       # DTB write misses
system.cpu.itb.inserts                              0                       # Number of times an entry is inserted into the TLB
system.cpu.itb.flushTlb                             0                       # Number of times complete TLB was flushed
system.cpu.itb.flushTlbMva                          0                       # Number of times TLB was flushed by MVA
system.cpu.itb.flushTlbMvaAsid                      0                       # Number of times TLB was flushed by MVA & ASID
system.cpu.itb.flushTlbAsid                         0                       # Number of times TLB was flushed by ASID
system.cpu.itb.flushedEntries                       0                       # Number of entries that have been flushed from TLB
system.cpu.itb.alignFaults                          0                       # Number of TLB faults due to alignment restrictions
system.cpu.itb.prefetchFaults                       0                       # Number of TLB faults due to prefetch
system.cpu.itb.domainFaults                         0                       # Number of TLB faults due to domain restrictions
system.cpu.itb.permsFaults                          0                       # Number of TLB faults due to permissions restrictions
system.cpu.itb.readAccesses                         0                       # DTB read accesses
system.cpu.itb.writeAccesses                        0                       # DTB write accesses
system.cpu.itb.instAccesses                         0                       # ITB inst accesses
system.cpu.itb.hits                                 0                       # Total TLB (inst and data) hits
system.cpu.itb.misses                               0                       # Total TLB (inst and data) misses
system.cpu.itb.accesses                             0                       # Total TLB (inst and data) accesses
system.cpu.itb.stage2_mmu.stage2_tlb.instHits            0                       # ITB inst hits
system.cpu.itb.stage2_mmu.stage2_tlb.instMisses            0                       # ITB inst misses
system.cpu.itb.stage2_mmu.stage2_tlb.readHits            0                       # DTB read hits
system.cpu.itb.stage2_mmu.stage2_tlb.readMisses            0                       # DTB read misses
system.cpu.itb.stage2_mmu.stage2_tlb.writeHits            0                       # DTB write hits
system.cpu.itb.stage2_mmu.stage2_tlb.writeMisses            0                       # DTB write misses
system.cpu.itb.stage2_mmu.stage2_tlb.inserts            0                       # Number of times an entry is inserted into the TLB
system.cpu.itb.stage2_mmu.stage2_tlb.flushTlb            0                       # Number of times complete TLB was flushed
system.cpu.itb.stage2_mmu.stage2_tlb.flushTlbMva            0                       # Number of times TLB was flushed by MVA
system.cpu.itb.stage2_mmu.stage2_tlb.flushTlbMvaAsid            0                       # Number of times TLB was flushed by MVA & ASID
system.cpu.itb.stage2_mmu.stage2_tlb.flushTlbAsid            0                       # Number of times TLB was flushed by ASID
system.cpu.itb.stage2_mmu.stage2_tlb.flushedEntries            0                       # Number of entries that have been flushed from TLB
system.cpu.itb.stage2_mmu.stage2_tlb.alignFaults            0                       # Number of TLB faults due to alignment restrictions
system.cpu.itb.stage2_mmu.stage2_tlb.prefetchFaults            0                       # Number of TLB faults due to prefetch
system.cpu.itb.stage2_mmu.stage2_tlb.domainFaults            0                       # Number of TLB faults due to domain restrictions
system.cpu.itb.stage2_mmu.stage2_tlb.permsFaults            0                       # Number of TLB faults due to permissions restrictions
system.cpu.itb.stage2_mmu.stage2_tlb.readAccesses            0                       # DTB read accesses
system.cpu.itb.stage2_mmu.stage2_tlb.writeAccesses            0                       # DTB write accesses
system.cpu.itb.stage2_mmu.stage2_tlb.instAccesses            0                       # ITB inst accesses
system.cpu.itb.stage2_mmu.stage2_tlb.hits            0                       # Total TLB (inst and data) hits
system.cpu.itb.stage2_mmu.stage2_tlb.misses            0                       # Total TLB (inst and data) misses
system.cpu.itb.stage2_mmu.stage2_tlb.accesses            0                       # Total TLB (inst and data) accesses
system.cpu.itb.stage2_mmu.stage2_tlb.walker.walks            0                       # Table walker walks requested
system.cpu.itb.stage2_mmu.stage2_tlb.walker.requestOrigin_Requested::Data            0                       # Table walker requests started/completed, data/inst
system.cpu.itb.stage2_mmu.stage2_tlb.walker.requestOrigin_Requested::Inst            0                       # Table walker requests started/completed, data/inst
system.cpu.itb.stage2_mmu.stage2_tlb.walker.requestOrigin_Requested::total            0                       # Table walker requests started/completed, data/inst
system.cpu.itb.stage2_mmu.stage2_tlb.walker.requestOrigin_Completed::Data            0                       # Table walker requests started/completed, data/inst
system.cpu.itb.stage2_mmu.stage2_tlb.walker.requestOrigin_Completed::Inst            0                       # Table walker requests started/completed, data/inst
system.cpu.itb.stage2_mmu.stage2_tlb.walker.requestOrigin_Completed::total            0                       # Table walker requests started/completed, data/inst
system.cpu.itb.stage2_mmu.stage2_tlb.walker.requestOrigin::total            0                       # Table walker requests started/completed, data/inst
system.cpu.itb.stage2_mmu.stage2_tlb.walker.power_state.pwrStateResidencyTicks::UNDEFINED  55654776000                       # Cumulative time (in ticks) in various power states
system.cpu.itb.walker.walks                         0                       # Table walker walks requested
system.cpu.itb.walker.requestOrigin_Requested::Data            0                       # Table walker requests started/completed, data/inst
system.cpu.itb.walker.requestOrigin_Requested::Inst            0                       # Table walker requests started/completed, data/inst
system.cpu.itb.walker.requestOrigin_Requested::total            0                       # Table walker requests started/completed, data/inst
system.cpu.itb.walker.requestOrigin_Completed::Data            0                       # Table walker requests started/completed, data/inst
system.cpu.itb.walker.requestOrigin_Completed::Inst            0                       # Table walker requests started/completed, data/inst
system.cpu.itb.walker.requestOrigin_Completed::total            0                       # Table walker requests started/completed, data/inst
system.cpu.itb.walker.requestOrigin::total            0                       # Table walker requests started/completed, data/inst
system.cpu.itb.walker.power_state.pwrStateResidencyTicks::UNDEFINED  55654776000                       # Cumulative time (in ticks) in various power states
system.cpu.power_state.pwrStateResidencyTicks::ON  55654776000                       # Cumulative time (in ticks) in various power states
system.cpu.thread28265.numInsts             100000001                       # Number of Instructions committed
system.cpu.thread28265.numOps               109139393                       # Number of Ops committed
system.cpu.thread28265.numMemRefs                   0                       # Number of Memory References
system.cpu_clk_domain.clock                       500                       # Clock period in ticks
system.cpu_voltage_domain.voltage                   1                       # Voltage in Volts
system.l2.demand_hits::.cpu.inst                  491                       # number of demand (read+write) hits
system.l2.demand_hits::.cpu.data                11249                       # number of demand (read+write) hits
system.l2.demand_hits::total                    11740                       # number of demand (read+write) hits
system.l2.overall_hits::.cpu.inst                 491                       # number of overall hits
system.l2.overall_hits::.cpu.data               11249                       # number of overall hits
system.l2.overall_hits::total                   11740                       # number of overall hits
system.l2.demand_misses::.cpu.inst                506                       # number of demand (read+write) misses
system.l2.demand_misses::.cpu.data              41080                       # number of demand (read+write) misses
system.l2.demand_misses::total                  41586                       # number of demand (read+write) misses
system.l2.overall_misses::.cpu.inst               506                       # number of overall misses
system.l2.overall_misses::.cpu.data             41080                       # number of overall misses
system.l2.overall_misses::total                 41586                       # number of overall misses
system.l2.demand_miss_latency::.cpu.inst     38687000                       # number of demand (read+write) miss cycles
system.l2.demand_miss_latency::.cpu.data   3276315000                       # number of demand (read+write) miss cycles
system.l2.demand_miss_latency::total       3315002000                       # number of demand (read+write) miss cycles
system.l2.overall_miss_latency::.cpu.inst     38687000                       # number of overall miss cycles
system.l2.overall_miss_latency::.cpu.data   3276315000                       # number of overall miss cycles
system.l2.overall_miss_latency::total      3315002000                       # number of overall miss cycles
system.l2.demand_accesses::.cpu.inst              997                       # number of demand (read+write) accesses
system.l2.demand_accesses::.cpu.data            52329                       # number of demand (read+write) accesses
system.l2.demand_accesses::total                53326                       # number of demand (read+write) accesses
system.l2.overall_accesses::.cpu.inst             997                       # number of overall (read+write) accesses
system.l2.overall_accesses::.cpu.data           52329                       # number of overall (read+write) accesses
system.l2.overall_accesses::total               53326                       # number of overall (read+write) accesses
system.l2.demand_miss_rate::.cpu.inst        0.507523                       # miss rate for demand accesses
system.l2.demand_miss_rate::.cpu.data        0.785033                       # miss rate for demand accesses
system.l2.demand_miss_rate::total            0.779845                       # miss rate for demand accesses
system.l2.overall_miss_rate::.cpu.inst       0.507523                       # miss rate for overall accesses
system.l2.overall_miss_rate::.cpu.data       0.785033                       # miss rate for overall accesses
system.l2.overall_miss_rate::total           0.779845                       # miss rate for overall accesses
system.l2.demand_avg_miss_latency::.cpu.inst 76456.521739                       # average overall miss latency
system.l2.demand_avg_miss_latency::.cpu.data 79754.503408                       # average overall miss latency
system.l2.demand_avg_miss_latency::total 79714.375030                       # average overall miss latency
system.l2.overall_avg_miss_latency::.cpu.inst 76456.521739                       # average overall miss latency
system.l2.overall_avg_miss_latency::.cpu.data 79754.503408                       # average overall miss latency
system.l2.overall_avg_miss_latency::total 79714.375030                       # average overall miss latency
system.l2.blocked_cycles::no_mshrs                  0                       # number of cycles access was blocked
system.l2.blocked_cycles::no_targets                0                       # number of cycles access was blocked
system.l2.blocked::no_mshrs                         0                       # number of cycles access was blocked
system.l2.blocked::no_targets                       0                       # number of cycles access was blocked
system.l2.avg_blocked_cycles::no_mshrs            nan                       # average number of cycles each access was blocked
system.l2.avg_blocked_cycles::no_targets          nan                       # average number of cycles each access was blocked
system.l2.writebacks::.writebacks               24618                       # number of writebacks
system.l2.writebacks::total                     24618                       # number of writebacks
system.l2.demand_mshr_hits::.cpu.data               1                       # number of demand (read+write) MSHR hits
system.l2.demand_mshr_hits::total                   1                       # number of demand (read+write) MSHR hits
system.l2.overall_mshr_hits::.cpu.data              1                       # number of overall MSHR hits
system.l2.overall_mshr_hits::total                  1                       # number of overall MSHR hits
system.l2.demand_mshr_misses::.cpu.inst           506                       # number of demand (read+write) MSHR misses
system.l2.demand_mshr_misses::.cpu.data         41079                       # number of demand (read+write) MSHR misses
system.l2.demand_mshr_misses::total             41585                       # number of demand (read+write) MSHR misses
system.l2.overall_mshr_misses::.cpu.inst          506                       # number of overall MSHR misses
system.l2.overall_mshr_misses::.cpu.data        41079                       # number of overall MSHR misses
system.l2.overall_mshr_misses::total            41585                       # number of overall MSHR misses
system.l2.demand_mshr_miss_latency::.cpu.inst     33627000                       # number of demand (read+write) MSHR miss cycles
system.l2.demand_mshr_miss_latency::.cpu.data   2865457000                       # number of demand (read+write) MSHR miss cycles
system.l2.demand_mshr_miss_latency::total   2899084000                       # number of demand (read+write) MSHR miss cycles
system.l2.overall_mshr_miss_latency::.cpu.inst     33627000                       # number of overall MSHR miss cycles
system.l2.overall_mshr_miss_latency::.cpu.data   2865457000                       # number of overall MSHR miss cycles
system.l2.overall_mshr_miss_latency::total   2899084000                       # number of overall MSHR miss cycles
system.l2.demand_mshr_miss_rate::.cpu.inst     0.507523                       # mshr miss rate for demand accesses
system.l2.demand_mshr_miss_rate::.cpu.data     0.785014                       # mshr miss rate for demand accesses
system.l2.demand_mshr_miss_rate::total       0.779826                       # mshr miss rate for demand accesses
system.l2.overall_mshr_miss_rate::.cpu.inst     0.507523                       # mshr miss rate for overall accesses
system.l2.overall_mshr_miss_rate::.cpu.data     0.785014                       # mshr miss rate for overall accesses
system.l2.overall_mshr_miss_rate::total      0.779826                       # mshr miss rate for overall accesses
system.l2.demand_avg_mshr_miss_latency::.cpu.inst 66456.521739                       # average overall mshr miss latency
system.l2.demand_avg_mshr_miss_latency::.cpu.data 69754.789552                       # average overall mshr miss latency
system.l2.demand_avg_mshr_miss_latency::total 69714.656727                       # average overall mshr miss latency
system.l2.overall_avg_mshr_miss_latency::.cpu.inst 66456.521739                       # average overall mshr miss latency
system.l2.overall_avg_mshr_miss_latency::.cpu.data 69754.789552                       # average overall mshr miss latency
system.l2.overall_avg_mshr_miss_latency::total 69714.656727                       # average overall mshr miss latency
system.l2.replacements                          25218                       # number of replacements
system.l2.WritebackDirty_hits::.writebacks        48456                       # number of WritebackDirty hits
system.l2.WritebackDirty_hits::total            48456                       # number of WritebackDirty hits
system.l2.WritebackDirty_accesses::.writebacks        48456                       # number of WritebackDirty accesses(hits+misses)
system.l2.WritebackDirty_accesses::total        48456                       # number of WritebackDirty accesses(hits+misses)
system.l2.WritebackClean_hits::.writebacks          603                       # number of WritebackClean hits
system.l2.WritebackClean_hits::total              603                       # number of WritebackClean hits
system.l2.WritebackClean_accesses::.writebacks          603                       # number of WritebackClean accesses(hits+misses)
system.l2.WritebackClean_accesses::total          603                       # number of WritebackClean accesses(hits+misses)
system.l2.CleanEvict_mshr_misses::.writebacks            6                       # number of CleanEvict MSHR misses
system.l2.CleanEvict_mshr_misses::total             6                       # number of CleanEvict MSHR misses
system.l2.CleanEvict_mshr_miss_rate::.writebacks          inf                       # mshr miss rate for CleanEvict accesses
system.l2.CleanEvict_mshr_miss_rate::total          inf                       # mshr miss rate for CleanEvict accesses
system.l2.ReadExReq_hits::.cpu.data                22                       # number of ReadExReq hits
system.l2.ReadExReq_hits::total                    22                       # number of ReadExReq hits
system.l2.ReadExReq_misses::.cpu.data           37941                       # number of ReadExReq misses
system.l2.ReadExReq_misses::total               37941                       # number of ReadExReq misses
system.l2.ReadExReq_miss_latency::.cpu.data   2993804000                       # number of ReadExReq miss cycles
system.l2.ReadExReq_miss_latency::total    2993804000                       # number of ReadExReq miss cycles
system.l2.ReadExReq_accesses::.cpu.data         37963                       # number of ReadExReq accesses(hits+misses)
system.l2.ReadExReq_accesses::total             37963                       # number of ReadExReq accesses(hits+misses)
system.l2.ReadExReq_miss_rate::.cpu.data     0.999420                       # miss rate for ReadExReq accesses
system.l2.ReadExReq_miss_rate::total         0.999420                       # miss rate for ReadExReq accesses
system.l2.ReadExReq_avg_miss_latency::.cpu.data 78906.829024                       # average ReadExReq miss latency
system.l2.ReadExReq_avg_miss_latency::total 78906.829024                       # average ReadExReq miss latency
system.l2.ReadExReq_mshr_misses::.cpu.data        37941                       # number of ReadExReq MSHR misses
system.l2.ReadExReq_mshr_misses::total          37941                       # number of ReadExReq MSHR misses
system.l2.ReadExReq_mshr_miss_latency::.cpu.data   2614394000                       # number of ReadExReq MSHR miss cycles
system.l2.ReadExReq_mshr_miss_latency::total   2614394000                       # number of ReadExReq MSHR miss cycles
system.l2.ReadExReq_mshr_miss_rate::.cpu.data     0.999420                       # mshr miss rate for ReadExReq accesses
system.l2.ReadExReq_mshr_miss_rate::total     0.999420                       # mshr miss rate for ReadExReq accesses
system.l2.ReadExReq_avg_mshr_miss_latency::.cpu.data 68906.829024                       # average ReadExReq mshr miss latency
system.l2.ReadExReq_avg_mshr_miss_latency::total 68906.829024                       # average ReadExReq mshr miss latency
system.l2.ReadCleanReq_hits::.cpu.inst            491                       # number of ReadCleanReq hits
system.l2.ReadCleanReq_hits::total                491                       # number of ReadCleanReq hits
system.l2.ReadCleanReq_misses::.cpu.inst          506                       # number of ReadCleanReq misses
system.l2.ReadCleanReq_misses::total              506                       # number of ReadCleanReq misses
system.l2.ReadCleanReq_miss_latency::.cpu.inst     38687000                       # number of ReadCleanReq miss cycles
system.l2.ReadCleanReq_miss_latency::total     38687000                       # number of ReadCleanReq miss cycles
system.l2.ReadCleanReq_accesses::.cpu.inst          997                       # number of ReadCleanReq accesses(hits+misses)
system.l2.ReadCleanReq_accesses::total            997                       # number of ReadCleanReq accesses(hits+misses)
system.l2.ReadCleanReq_miss_rate::.cpu.inst     0.507523                       # miss rate for ReadCleanReq accesses
system.l2.ReadCleanReq_miss_rate::total      0.507523                       # miss rate for ReadCleanReq accesses
system.l2.ReadCleanReq_avg_miss_latency::.cpu.inst 76456.521739                       # average ReadCleanReq miss latency
system.l2.ReadCleanReq_avg_miss_latency::total 76456.521739                       # average ReadCleanReq miss latency
system.l2.ReadCleanReq_mshr_misses::.cpu.inst          506                       # number of ReadCleanReq MSHR misses
system.l2.ReadCleanReq_mshr_misses::total          506                       # number of ReadCleanReq MSHR misses
system.l2.ReadCleanReq_mshr_miss_latency::.cpu.inst     33627000                       # number of ReadCleanReq MSHR miss cycles
system.l2.ReadCleanReq_mshr_miss_latency::total     33627000                       # number of ReadCleanReq MSHR miss cycles
system.l2.ReadCleanReq_mshr_miss_rate::.cpu.inst     0.507523                       # mshr miss rate for ReadCleanReq accesses
system.l2.ReadCleanReq_mshr_miss_rate::total     0.507523                       # mshr miss rate for ReadCleanReq accesses
system.l2.ReadCleanReq_avg_mshr_miss_latency::.cpu.inst 66456.521739                       # average ReadCleanReq mshr miss latency
system.l2.ReadCleanReq_avg_mshr_miss_latency::total 66456.521739                       # average ReadCleanReq mshr miss latency
system.l2.ReadSharedReq_hits::.cpu.data         11227                       # number of ReadSharedReq hits
system.l2.ReadSharedReq_hits::total             11227                       # number of ReadSharedReq hits
system.l2.ReadSharedReq_misses::.cpu.data         3139                       # number of ReadSharedReq misses
system.l2.ReadSharedReq_misses::total            3139                       # number of ReadSharedReq misses
system.l2.ReadSharedReq_miss_latency::.cpu.data    282511000                       # number of ReadSharedReq miss cycles
system.l2.ReadSharedReq_miss_latency::total    282511000                       # number of ReadSharedReq miss cycles
system.l2.ReadSharedReq_accesses::.cpu.data        14366                       # number of ReadSharedReq accesses(hits+misses)
system.l2.ReadSharedReq_accesses::total         14366                       # number of ReadSharedReq accesses(hits+misses)
system.l2.ReadSharedReq_miss_rate::.cpu.data     0.218502                       # miss rate for ReadSharedReq accesses
system.l2.ReadSharedReq_miss_rate::total     0.218502                       # miss rate for ReadSharedReq accesses
system.l2.ReadSharedReq_avg_miss_latency::.cpu.data 90000.318573                       # average ReadSharedReq miss latency
system.l2.ReadSharedReq_avg_miss_latency::total 90000.318573                       # average ReadSharedReq miss latency
system.l2.ReadSharedReq_mshr_hits::.cpu.data            1                       # number of ReadSharedReq MSHR hits
system.l2.ReadSharedReq_mshr_hits::total            1                       # number of ReadSharedReq MSHR hits
system.l2.ReadSharedReq_mshr_misses::.cpu.data         3138                       # number of ReadSharedReq MSHR misses
system.l2.ReadSharedReq_mshr_misses::total         3138                       # number of ReadSharedReq MSHR misses
system.l2.ReadSharedReq_mshr_miss_latency::.cpu.data    251063000                       # number of ReadSharedReq MSHR miss cycles
system.l2.ReadSharedReq_mshr_miss_latency::total    251063000                       # number of ReadSharedReq MSHR miss cycles
system.l2.ReadSharedReq_mshr_miss_rate::.cpu.data     0.218432                       # mshr miss rate for ReadSharedReq accesses
system.l2.ReadSharedReq_mshr_miss_rate::total     0.218432                       # mshr miss rate for ReadSharedReq accesses
system.l2.ReadSharedReq_avg_mshr_miss_latency::.cpu.data 80007.329509                       # average ReadSharedReq mshr miss latency
system.l2.ReadSharedReq_avg_mshr_miss_latency::total 80007.329509                       # average ReadSharedReq mshr miss latency
system.l2.power_state.pwrStateResidencyTicks::UNDEFINED  55654776000                       # Cumulative time (in ticks) in various power states
system.l2.tags.tagsinuse                 15517.175739                       # Cycle average of tags in use
system.l2.tags.total_refs                      105214                       # Total number of references to valid blocks.
system.l2.tags.sampled_refs                     41602                       # Sample count of references to valid blocks.
system.l2.tags.avg_refs                      2.529061                       # Average number of references to valid blocks.
system.l2.tags.warmup_cycle                     77000                       # Cycle when the warmup percentage was hit.
system.l2.tags.occ_blocks::.writebacks       7.440128                       # Average occupied blocks per requestor
system.l2.tags.occ_blocks::.cpu.inst        62.152917                       # Average occupied blocks per requestor
system.l2.tags.occ_blocks::.cpu.data     15447.582695                       # Average occupied blocks per requestor
system.l2.tags.occ_percent::.writebacks      0.000454                       # Average percentage of cache occupancy
system.l2.tags.occ_percent::.cpu.inst        0.003794                       # Average percentage of cache occupancy
system.l2.tags.occ_percent::.cpu.data        0.942846                       # Average percentage of cache occupancy
system.l2.tags.occ_percent::total            0.947093                       # Average percentage of cache occupancy
system.l2.tags.occ_task_id_blocks::1024         16384                       # Occupied blocks per task id
system.l2.tags.age_task_id_blocks_1024::0            5                       # Occupied blocks per task id
system.l2.tags.age_task_id_blocks_1024::1           40                       # Occupied blocks per task id
system.l2.tags.age_task_id_blocks_1024::2          460                       # Occupied blocks per task id
system.l2.tags.age_task_id_blocks_1024::3         3971                       # Occupied blocks per task id
system.l2.tags.age_task_id_blocks_1024::4        11908                       # Occupied blocks per task id
system.l2.tags.occ_task_id_percent::1024            1                       # Percentage of cache occupancy per task id
system.l2.tags.tag_accesses                    883370                       # Number of tag accesses
system.l2.tags.data_accesses                   883370                       # Number of data accesses
system.l2.tags.power_state.pwrStateResidencyTicks::UNDEFINED  55654776000                       # Cumulative time (in ticks) in various power states
system.mem_ctrls.avgPriority_.writebacks::samples     24618.00                       # Average QoS priority value for accepted requests
system.mem_ctrls.avgPriority_.cpu.inst::samples       506.00                       # Average QoS priority value for accepted requests
system.mem_ctrls.avgPriority_.cpu.data::samples     41073.00                       # Average QoS priority value for accepted requests
system.mem_ctrls.priorityMinLatency      0.000000018750                       # per QoS priority minimum request to response latency (s)
system.mem_ctrls.priorityMaxLatency      0.001030574500                       # per QoS priority maximum request to response latency (s)
system.mem_ctrls.numReadWriteTurnArounds         1371                       # Number of turnarounds from READ to WRITE
system.mem_ctrls.numWriteReadTurnArounds         1371                       # Number of turnarounds from WRITE to READ
system.mem_ctrls.numStayReadState              121857                       # Number of times bus staying in READ state
system.mem_ctrls.numStayWriteState              23241                       # Number of times bus staying in WRITE state
system.mem_ctrls.readReqs                       41585                       # Number of read requests accepted
system.mem_ctrls.writeReqs                      24618                       # Number of write requests accepted
system.mem_ctrls.readBursts                     41585                       # Number of controller read bursts, including those serviced by the write queue
system.mem_ctrls.writeBursts                    24618                       # Number of controller write bursts, including those merged in the write queue
system.mem_ctrls.servicedByWrQ                      6                       # Number of controller read bursts serviced by the write queue
system.mem_ctrls.mergedWrBursts                     0                       # Number of controller write bursts merged with an existing one
system.mem_ctrls.neitherReadNorWriteReqs            0                       # Number of requests that are neither read nor write
system.mem_ctrls.avgRdQLen                       1.04                       # Average read queue length when enqueuing
system.mem_ctrls.avgWrQLen                      21.90                       # Average write queue length when enqueuing
system.mem_ctrls.numRdRetry                         0                       # Number of times read queue was full causing retry
system.mem_ctrls.numWrRetry                         0                       # Number of times write queue was full causing retry
system.mem_ctrls.readPktSize::0                     0                       # Read request sizes (log2)
system.mem_ctrls.readPktSize::1                     0                       # Read request sizes (log2)
system.mem_ctrls.readPktSize::2                     0                       # Read request sizes (log2)
system.mem_ctrls.readPktSize::3                     0                       # Read request sizes (log2)
system.mem_ctrls.readPktSize::4                     0                       # Read request sizes (log2)
system.mem_ctrls.readPktSize::5                     0                       # Read request sizes (log2)
system.mem_ctrls.readPktSize::6                 41585                       # Read request sizes (log2)
system.mem_ctrls.writePktSize::0                    0                       # Write request sizes (log2)
system.mem_ctrls.writePktSize::1                    0                       # Write request sizes (log2)
system.mem_ctrls.writePktSize::2                    0                       # Write request sizes (log2)
system.mem_ctrls.writePktSize::3                    0                       # Write request sizes (log2)
system.mem_ctrls.writePktSize::4                    0                       # Write request sizes (log2)
system.mem_ctrls.writePktSize::5                    0                       # Write request sizes (log2)
system.mem_ctrls.writePktSize::6                24618                       # Write request sizes (log2)
system.mem_ctrls.rdQLenPdf::0                   40478                       # What read queue length does an incoming req see
system.mem_ctrls.rdQLenPdf::1                    1092                       # What read queue length does an incoming req see
system.mem_ctrls.rdQLenPdf::2                       9                       # What read queue length does an incoming req see
system.mem_ctrls.rdQLenPdf::3                       0                       # What read queue length does an incoming req see
system.mem_ctrls.rdQLenPdf::4                       0                       # What read queue length does an incoming req see
system.mem_ctrls.rdQLenPdf::5                       0                       # What read queue length does an incoming req see
system.mem_ctrls.rdQLenPdf::6                       0                       # What read queue length does an incoming req see
[...]
system.mem_ctrls.dram.bw_write::.writebacks     28309376                       # Write bandwidth from this memory (bytes/s)
system.mem_ctrls.dram.bw_write::total        28309376                       # Write bandwidth from this memory (bytes/s)
system.mem_ctrls.dram.bw_total::.writebacks     28309376                       # Total bandwidth to/from this memory (bytes/s)
system.mem_ctrls.dram.bw_total::.cpu.inst       581873                       # Total bandwidth to/from this memory (bytes/s)
system.mem_ctrls.dram.bw_total::.cpu.data     47238641                       # Total bandwidth to/from this memory (bytes/s)
system.mem_ctrls.dram.bw_total::total        76129890                       # Total bandwidth to/from this memory (bytes/s)
system.mem_ctrls.dram.readBursts                41579                       # Number of DRAM read bursts
system.mem_ctrls.dram.writeBursts               24588                       # Number of DRAM write bursts
system.mem_ctrls.dram.perBankRdBursts::0         2550                       # Per bank write bursts
system.mem_ctrls.dram.perBankRdBursts::1         2507                       # Per bank write bursts
system.mem_ctrls.dram.perBankRdBursts::2         2542                       # Per bank write bursts
system.mem_ctrls.dram.perBankRdBursts::3         2676                       # Per bank write bursts
system.mem_ctrls.dram.perBankRdBursts::4         2626                       # Per bank write bursts
system.mem_ctrls.dram.perBankRdBursts::5         2653                       # Per bank write bursts
system.mem_ctrls.dram.perBankRdBursts::6         2680                       # Per bank write bursts
system.mem_ctrls.dram.perBankRdBursts::7         2676                       # Per bank write bursts
system.mem_ctrls.dram.perBankRdBursts::8         2656                       # Per bank write bursts
system.mem_ctrls.dram.perBankRdBursts::9         2657                       # Per bank write bursts
system.mem_ctrls.dram.perBankRdBursts::10         2653                       # Per bank write bursts
system.mem_ctrls.dram.perBankRdBursts::11         2651                       # Per bank write bursts
system.mem_ctrls.dram.perBankRdBursts::12         2489                       # Per bank write bursts
system.mem_ctrls.dram.perBankRdBursts::13         2543                       # Per bank write bursts
system.mem_ctrls.dram.perBankRdBursts::14         2507                       # Per bank write bursts
system.mem_ctrls.dram.perBankRdBursts::15         2513                       # Per bank write bursts
system.mem_ctrls.dram.perBankWrBursts::0         1477                       # Per bank write bursts
system.mem_ctrls.dram.perBankWrBursts::1         1451                       # Per bank write bursts
system.mem_ctrls.dram.perBankWrBursts::2         1506                       # Per bank write bursts
system.mem_ctrls.dram.perBankWrBursts::3         1613                       # Per bank write bursts
system.mem_ctrls.dram.perBankWrBursts::4         1519                       # Per bank write bursts
system.mem_ctrls.dram.perBankWrBursts::5         1579                       # Per bank write bursts
system.mem_ctrls.dram.perBankWrBursts::6         1625                       # Per bank write bursts
system.mem_ctrls.dram.perBankWrBursts::7         1583                       # Per bank write bursts
system.mem_ctrls.dram.perBankWrBursts::8         1582                       # Per bank write bursts
system.mem_ctrls.dram.perBankWrBursts::9         1614                       # Per bank write bursts
system.mem_ctrls.dram.perBankWrBursts::10         1558                       # Per bank write bursts
system.mem_ctrls.dram.perBankWrBursts::11         1579                       # Per bank write bursts
system.mem_ctrls.dram.perBankWrBursts::12         1465                       # Per bank write bursts
system.mem_ctrls.dram.perBankWrBursts::13         1499                       # Per bank write bursts
system.mem_ctrls.dram.perBankWrBursts::14         1475                       # Per bank write bursts
system.mem_ctrls.dram.perBankWrBursts::15         1463                       # Per bank write bursts
system.mem_ctrls.dram.totQLat               409962000                       # Total ticks spent queuing
system.mem_ctrls.dram.totBusLat             207895000                       # Total ticks spent in databus transfers
system.mem_ctrls.dram.totMemAccLat         1189568250                       # Total ticks spent from burst creation until serviced by the DRAM
system.mem_ctrls.dram.avgQLat                 9859.83                       # Average queueing delay per DRAM burst
system.mem_ctrls.dram.avgBusLat               5000.00                       # Average bus latency per DRAM burst
system.mem_ctrls.dram.avgMemAccLat           28609.83                       # Average memory access latency per DRAM burst
system.mem_ctrls.dram.readRowHits               28872                       # Number of row buffer hits during reads
system.mem_ctrls.dram.writeRowHits              18587                       # Number of row buffer hits during writes
system.mem_ctrls.dram.readRowHitRate            69.44                       # Row buffer hit rate for reads
system.mem_ctrls.dram.writeRowHitRate           75.59                       # Row buffer hit rate for writes
system.mem_ctrls.dram.bytesPerActivate::samples        18706                       # Bytes accessed per row activation
system.mem_ctrls.dram.bytesPerActivate::mean   226.367583                       # Bytes accessed per row activation
system.mem_ctrls.dram.bytesPerActivate::gmean   153.780655                       # Bytes accessed per row activation
system.mem_ctrls.dram.bytesPerActivate::stdev   233.043236                       # Bytes accessed per row activation
system.mem_ctrls.dram.bytesPerActivate::0-127         6929     37.04%     37.04% # Bytes accessed per row activation
system.mem_ctrls.dram.bytesPerActivate::128-255         7559     40.41%     77.45% # Bytes accessed per row activation
system.mem_ctrls.dram.bytesPerActivate::256-383         1018      5.44%     82.89% # Bytes accessed per row activation
system.mem_ctrls.dram.bytesPerActivate::384-511          694      3.71%     86.60% # Bytes accessed per row activation
system.mem_ctrls.dram.bytesPerActivate::512-639          697      3.73%     90.33% # Bytes accessed per row activation
system.mem_ctrls.dram.bytesPerActivate::640-767          633      3.38%     93.71% # Bytes accessed per row activation
system.mem_ctrls.dram.bytesPerActivate::768-895          322      1.72%     95.43% # Bytes accessed per row activation
system.mem_ctrls.dram.bytesPerActivate::896-1023          487      2.60%     98.04% # Bytes accessed per row activation
system.mem_ctrls.dram.bytesPerActivate::1024-1151          367      1.96%    100.00% # Bytes accessed per row activation
system.mem_ctrls.dram.bytesPerActivate::total        18706                       # Bytes accessed per row activation
system.mem_ctrls.dram.bytesRead               2661056                       # Total number of bytes read from DRAM
system.mem_ctrls.dram.bytesWritten            1573632                       # Total number of bytes written to DRAM
system.mem_ctrls.dram.avgRdBW               47.813614                       # Average DRAM read bandwidth in MiBytes/s
system.mem_ctrls.dram.avgWrBW               28.274878                       # Average DRAM write bandwidth in MiBytes/s
system.mem_ctrls.dram.peakBW                 12800.00                       # Theoretical peak bandwidth in MiByte/s
system.mem_ctrls.dram.busUtil                    0.59                       # Data bus utilization in percentage
system.mem_ctrls.dram.busUtilRead                0.37                       # Data bus utilization in percentage for reads
system.mem_ctrls.dram.busUtilWrite               0.22                       # Data bus utilization in percentage for writes
system.mem_ctrls.dram.pageHitRate               71.73                       # Row buffer hit rate, read and write combined
system.mem_ctrls.dram.power_state.pwrStateResidencyTicks::UNDEFINED  55654776000                       # Cumulative time (in ticks) in various power states
system.mem_ctrls.dram.rank0.actEnergy        67937100                       # Energy for activate commands per rank (pJ)
system.mem_ctrls.dram.rank0.preEnergy        36105630                       # Energy for precharge commands per rank (pJ)
system.mem_ctrls.dram.rank0.readEnergy      149297400                       # Energy for read commands per rank (pJ)
system.mem_ctrls.dram.rank0.writeEnergy      64482660                       # Energy for write commands per rank (pJ)
system.mem_ctrls.dram.rank0.refreshEnergy 4392832080.000001                       # Energy for refresh commands per rank (pJ)
system.mem_ctrls.dram.rank0.actBackEnergy  13621624020                       # Energy for active background per rank (pJ)
system.mem_ctrls.dram.rank0.preBackEnergy   9900592800                       # Energy for precharge background per rank (pJ)
system.mem_ctrls.dram.rank0.actPowerDownEnergy            0                       # Energy for active power-down per rank (pJ)
system.mem_ctrls.dram.rank0.prePowerDownEnergy            0                       # Energy for precharge power-down per rank (pJ)
system.mem_ctrls.dram.rank0.selfRefreshEnergy            0                       # Energy for self refresh per rank (pJ)
system.mem_ctrls.dram.rank0.totalEnergy   28232871690                       # Total energy per rank (pJ)
system.mem_ctrls.dram.rank0.averagePower   507.285694                       # Core power per rank (mW)
system.mem_ctrls.dram.rank0.totalIdleTime            0                       # Total Idle time Per DRAM Rank
system.mem_ctrls.dram.rank0.pwrStateTime::IDLE  25608896250                       # Time in different power states
system.mem_ctrls.dram.rank0.pwrStateTime::REF   1858220000                       # Time in different power states
system.mem_ctrls.dram.rank0.pwrStateTime::SREF            0                       # Time in different power states
system.mem_ctrls.dram.rank0.pwrStateTime::PRE_PDN            0                       # Time in different power states
system.mem_ctrls.dram.rank0.pwrStateTime::ACT  28187659750                       # Time in different power states
system.mem_ctrls.dram.rank0.pwrStateTime::ACT_PDN            0                       # Time in different power states
system.mem_ctrls.dram.rank1.actEnergy        65638020                       # Energy for activate commands per rank (pJ)
system.mem_ctrls.dram.rank1.preEnergy        34883640                       # Energy for precharge commands per rank (pJ)
system.mem_ctrls.dram.rank1.readEnergy      147576660                       # Energy for read commands per rank (pJ)
system.mem_ctrls.dram.rank1.writeEnergy      63866700                       # Energy for write commands per rank (pJ)
system.mem_ctrls.dram.rank1.refreshEnergy 4392832080.000001                       # Energy for refresh commands per rank (pJ)
system.mem_ctrls.dram.rank1.actBackEnergy  13611573780                       # Energy for active background per rank (pJ)
system.mem_ctrls.dram.rank1.preBackEnergy   9909056160                       # Energy for precharge background per rank (pJ)
system.mem_ctrls.dram.rank1.actPowerDownEnergy            0                       # Energy for active power-down per rank (pJ)
system.mem_ctrls.dram.rank1.prePowerDownEnergy            0                       # Energy for precharge power-down per rank (pJ)
system.mem_ctrls.dram.rank1.selfRefreshEnergy            0                       # Energy for self refresh per rank (pJ)
system.mem_ctrls.dram.rank1.totalEnergy   28225427040                       # Total energy per rank (pJ)
system.mem_ctrls.dram.rank1.averagePower   507.151930                       # Core power per rank (mW)
system.mem_ctrls.dram.rank1.totalIdleTime            0                       # Total Idle time Per DRAM Rank
system.mem_ctrls.dram.rank1.pwrStateTime::IDLE  25632261250                       # Time in different power states
system.mem_ctrls.dram.rank1.pwrStateTime::REF   1858220000                       # Time in different power states
system.mem_ctrls.dram.rank1.pwrStateTime::SREF            0                       # Time in different power states
system.mem_ctrls.dram.rank1.pwrStateTime::PRE_PDN            0                       # Time in different power states
system.mem_ctrls.dram.rank1.pwrStateTime::ACT  28164294750                       # Time in different power states
system.mem_ctrls.dram.rank1.pwrStateTime::ACT_PDN            0                       # Time in different power states
system.mem_ctrls.power_state.pwrStateResidencyTicks::UNDEFINED  55654776000                       # Cumulative time (in ticks) in various power states
system.membus.trans_dist::ReadResp               3644                       # Transaction distribution
system.membus.trans_dist::WritebackDirty        24618                       # Transaction distribution
system.membus.trans_dist::CleanEvict              177                       # Transaction distribution
system.membus.trans_dist::ReadExReq             37941                       # Transaction distribution
system.membus.trans_dist::ReadExResp            37941                       # Transaction distribution
system.membus.trans_dist::ReadSharedReq          3644                       # Transaction distribution
system.membus.pkt_count_system.l2.mem_side_port::system.mem_ctrls.port       107965                       # Packet count per connected requestor and responder (bytes)
system.membus.pkt_count::total                 107965                       # Packet count per connected requestor and responder (bytes)
system.membus.pkt_size_system.l2.mem_side_port::system.mem_ctrls.port      4236992                       # Cumulative packet size per connected requestor and responder (bytes)
system.membus.pkt_size::total                 4236992                       # Cumulative packet size per connected requestor and responder (bytes)
system.membus.snoops                                0                       # Total snoops (count)
system.membus.snoopTraffic                          0                       # Total snoop traffic (bytes)
system.membus.snoop_fanout::samples             41585                       # Request fanout histogram
system.membus.snoop_fanout::mean                    0                       # Request fanout histogram
system.membus.snoop_fanout::stdev                   0                       # Request fanout histogram
system.membus.snoop_fanout::underflows              0      0.00%      0.00% # Request fanout histogram
system.membus.snoop_fanout::0                   41585    100.00%    100.00% # Request fanout histogram
system.membus.snoop_fanout::1                       0      0.00%    100.00% # Request fanout histogram
system.membus.snoop_fanout::overflows               0      0.00%    100.00% # Request fanout histogram
system.membus.snoop_fanout::min_value               0                       # Request fanout histogram
system.membus.snoop_fanout::max_value               0                       # Request fanout histogram
system.membus.snoop_fanout::total               41585                       # Request fanout histogram
system.membus.power_state.pwrStateResidencyTicks::UNDEFINED  55654776000                       # Cumulative time (in ticks) in various power states
system.membus.reqLayer0.occupancy           176665000                       # Layer occupancy (ticks)
system.membus.reqLayer0.utilization               0.3                       # Layer utilization (%)
system.membus.respLayer1.occupancy          221461500                       # Layer occupancy (ticks)
system.membus.respLayer1.utilization              0.4                       # Layer utilization (%)
system.tol2bus.trans_dist::ReadResp             15363                       # Transaction distribution
system.tol2bus.trans_dist::WritebackDirty        73074                       # Transaction distribution
system.tol2bus.trans_dist::WritebackClean          607                       # Transaction distribution
system.tol2bus.trans_dist::CleanEvict            3449                       # Transaction distribution
system.tol2bus.trans_dist::ReadExReq            37963                       # Transaction distribution
system.tol2bus.trans_dist::ReadExResp           37963                       # Transaction distribution
system.tol2bus.trans_dist::ReadCleanReq           997                       # Transaction distribution
system.tol2bus.trans_dist::ReadSharedReq        14366                       # Transaction distribution
system.tol2bus.pkt_count_system.cpu.icache.mem_side_port::system.l2.cpu_side_port         2601                       # Packet count per connected requestor and responder (bytes)
system.tol2bus.pkt_count_system.cpu.dcache.mem_side_port::system.l2.cpu_side_port       155963                       # Packet count per connected requestor and responder (bytes)
system.tol2bus.pkt_count::total                158564                       # Packet count per connected requestor and responder (bytes)
system.tol2bus.pkt_size_system.cpu.icache.mem_side_port::system.l2.cpu_side_port       102656                       # Cumulative packet size per connected requestor and responder (bytes)
system.tol2bus.pkt_size_system.cpu.dcache.mem_side_port::system.l2.cpu_side_port      6450240                       # Cumulative packet size per connected requestor and responder (bytes)
system.tol2bus.pkt_size::total                6552896                       # Cumulative packet size per connected requestor and responder (bytes)
system.tol2bus.snoops                           25218                       # Total snoops (count)
system.tol2bus.snoopTraffic                   1575552                       # Total snoop traffic (bytes)
system.tol2bus.snoop_fanout::samples            78544                       # Request fanout histogram
system.tol2bus.snoop_fanout::mean            0.005729                       # Request fanout histogram
system.tol2bus.snoop_fanout::stdev           0.075812                       # Request fanout histogram
system.tol2bus.snoop_fanout::underflows             0      0.00%      0.00% # Request fanout histogram
system.tol2bus.snoop_fanout::0                  78096     99.43%     99.43% # Request fanout histogram
system.tol2bus.snoop_fanout::1                    446      0.57%    100.00% # Request fanout histogram
system.tol2bus.snoop_fanout::2                      2      0.00%    100.00% # Request fanout histogram
system.tol2bus.snoop_fanout::overflows              0      0.00%    100.00% # Request fanout histogram
system.tol2bus.snoop_fanout::min_value              0                       # Request fanout histogram
system.tol2bus.snoop_fanout::max_value              2                       # Request fanout histogram
system.tol2bus.snoop_fanout::total              78544                       # Request fanout histogram
system.tol2bus.power_state.pwrStateResidencyTicks::UNDEFINED  55654776000                       # Cumulative time (in ticks) in various power states
system.tol2bus.reqLayer0.occupancy          101682000                       # Layer occupancy (ticks)
system.tol2bus.reqLayer0.utilization              0.2                       # Layer utilization (%)
system.tol2bus.respLayer0.occupancy           1495500                       # Layer occupancy (ticks)
system.tol2bus.respLayer0.utilization             0.0                       # Layer utilization (%)
system.tol2bus.respLayer1.occupancy          78493999                       # Layer occupancy (ticks)
system.tol2bus.respLayer1.utilization             0.1                       # Layer utilization (%)
system.voltage_domain.voltage                       1                       # Voltage in Volts

---------- End Simulation Statistics   ----------
