
---------- Begin Simulation Statistics ----------
final_tick                               163460000000                       # Number of ticks from beginning of simulation (restored from checkpoints and never reset)
host_inst_rate                                  13832                       # Simulator instruction rate (inst/s)
host_mem_usage                                 712380                       # Number of bytes of host memory used
host_op_rate                                    15763                       # Simulator op (including micro ops) rate (op/s)
host_seconds                                     0.65                       # Real time elapsed on the host
host_tick_rate                           251853476184                       # Simulator tick rate (ticks/s)
sim_freq                                 1000000000000                       # Frequency of simulated ticks
sim_insts                                        8975                       # Number of instructions simulated
sim_ops                                         10230                       # Number of ops (including micro ops) simulated
sim_seconds                                  0.163460                       # Number of seconds simulated
sim_ticks                                163460000000                       # Number of ticks simulated
system.cpu.committedInsts                        8975                       # Number of instructions committed
system.cpu.committedOps                         10230                       # Number of ops (including micro ops) committed
system.cpu.cpi                               1.821281                       # CPI: cycles per instruction
system.cpu.discardedOps                          1885                       # Number of ops (including micro ops) which were discarded before commit
system.cpu.idleCycles                             803                       # Total number of cycles that the object has spent stopped
system.cpu.ipc                               0.549064                       # IPC: instructions per cycle
system.cpu.numCycles                            16346                       # number of cpu cycles simulated
system.cpu.numFetchSuspends                         0                       # Number of times Execute suspended instruction fetching
system.cpu.numWorkItemsCompleted                    0                       # number of work items this cpu completed
system.cpu.numWorkItemsStarted                      0                       # number of work items this cpu started
system.cpu.op_class_0::No_OpClass                   0      0.00%      0.00% # Class of committed instruction
system.cpu.op_class_0::IntAlu                    7086     69.27%     69.27% # Class of committed instruction
system.cpu.op_class_0::IntMult                     70      0.68%     69.95% # Class of committed instruction
system.cpu.op_class_0::IntDiv                       0      0.00%     69.95% # Class of committed instruction
system.cpu.op_class_0::FloatAdd                     0      0.00%     69.95% # Class of committed instruction
system.cpu.op_class_0::FloatCmp                     0      0.00%     69.95% # Class of committed instruction
system.cpu.op_class_0::FloatCvt                     0      0.00%     69.95% # Class of committed instruction
system.cpu.op_class_0::FloatMult                    0      0.00%     69.95% # Class of committed instruction
system.cpu.op_class_0::FloatMultAcc                 0      0.00%     69.95% # Class of committed instruction
system.cpu.op_class_0::FloatDiv                     0      0.00%     69.95% # Class of committed instruction
system.cpu.op_class_0::FloatMisc                    0      0.00%     69.95% # Class of committed instruction
system.cpu.op_class_0::FloatSqrt                    0      0.00%     69.95% # Class of committed instruction
system.cpu.op_class_0::SimdAdd                      0      0.00%     69.95% # Class of committed instruction
system.cpu.op_class_0::SimdAddAcc                   0      0.00%     69.95% # Class of committed instruction
system.cpu.op_class_0::SimdAlu                      0      0.00%     69.95% # Class of committed instruction
system.cpu.op_class_0::SimdCmp                      0      0.00%     69.95% # Class of committed instruction
system.cpu.op_class_0::SimdCvt                      0      0.00%     69.95% # Class of committed instruction
system.cpu.op_class_0::SimdMisc                     0      0.00%     69.95% # Class of committed instruction
system.cpu.op_class_0::SimdMult                     0      0.00%     69.95% # Class of committed instruction
system.cpu.op_class_0::SimdMultAcc                  0      0.00%     69.95% # Class of committed instruction
system.cpu.op_class_0::SimdShift                    0      0.00%     69.95% # Class of committed instruction
system.cpu.op_class_0::SimdShiftAcc                 0      0.00%     69.95% # Class of committed instruction
system.cpu.op_class_0::SimdDiv                      0      0.00%     69.95% # Class of committed instruction
system.cpu.op_class_0::SimdSqrt                     0      0.00%     69.95% # Class of committed instruction
system.cpu.op_class_0::SimdFloatAdd                 0      0.00%     69.95% # Class of committed instruction
system.cpu.op_class_0::SimdFloatAlu                 0      0.00%     69.95% # Class of committed instruction
system.cpu.op_class_0::SimdFloatCmp                 0      0.00%     69.95% # Class of committed instruction
system.cpu.op_class_0::SimdFloatCvt                 0      0.00%     69.95% # Class of committed instruction
system.cpu.op_class_0::SimdFloatDiv                 0      0.00%     69.95% # Class of committed instruction
system.cpu.op_class_0::SimdFloatMisc                0      0.00%     69.95% # Class of committed instruction
system.cpu.op_class_0::SimdFloatMult                0      0.00%     69.95% # Class of committed instruction
system.cpu.op_class_0::SimdFloatMultAcc             0      0.00%     69.95% # Class of committed instruction
system.cpu.op_class_0::SimdFloatSqrt                0      0.00%     69.95% # Class of committed instruction
system.cpu.op_class_0::SimdReduceAdd                0      0.00%     69.95% # Class of committed instruction
system.cpu.op_class_0::SimdReduceAlu                0      0.00%     69.95% # Class of committed instruction
system.cpu.op_class_0::SimdReduceCmp                0      0.00%     69.95% # Class of committed instruction
system.cpu.op_class_0::SimdFloatReduceAdd            0      0.00%     69.95% # Class of committed instruction
system.cpu.op_class_0::SimdFloatReduceCmp            0      0.00%     69.95% # Class of committed instruction
system.cpu.op_class_0::SimdAes                      0      0.00%     69.95% # Class of committed instruction
system.cpu.op_class_0::SimdAesMix                   0      0.00%     69.95% # Class of committed instruction
system.cpu.op_class_0::SimdSha1Hash                 0      0.00%     69.95% # Class of committed instruction
system.cpu.op_class_0::SimdSha1Hash2                0      0.00%     69.95% # Class of committed instruction
system.cpu.op_class_0::SimdSha256Hash               0      0.00%     69.95% # Class of committed instruction
system.cpu.op_class_0::SimdSha256Hash2              0      0.00%     69.95% # Class of committed instruction
system.cpu.op_class_0::SimdShaSigma2                0      0.00%     69.95% # Class of committed instruction
system.cpu.op_class_0::SimdShaSigma3                0      0.00%     69.95% # Class of committed instruction
system.cpu.op_class_0::SimdPredAlu                  0      0.00%     69.95% # Class of committed instruction
system.cpu.op_class_0::MemRead                   1495     14.61%     84.57% # Class of committed instruction
system.cpu.op_class_0::MemWrite                  1579     15.43%    100.00% # Class of committed instruction
system.cpu.op_class_0::FloatMemRead                 0      0.00%    100.00% # Class of committed instruction
system.cpu.op_class_0::FloatMemWrite                0      0.00%    100.00% # Class of committed instruction
system.cpu.op_class_0::IprAccess                    0      0.00%    100.00% # Class of committed instruction
system.cpu.op_class_0::InstPrefetch                 0      0.00%    100.00% # Class of committed instruction
system.cpu.op_class_0::total                    10230                       # Class of committed instruction
system.cpu.tickCycles                           15543                       # Number of cycles that the object actually ticked
system.cpu.workload.numSyscalls                    11                       # Number of system calls
system.membus.snoop_filter.hit_multi_requests            2                       # Number of requests hitting in the snoop filter with multiple (>1) holders of the requested data.
system.membus.snoop_filter.hit_multi_snoops            0                       # Number of snoops hitting in the snoop filter with multiple (>1) holders of the requested data.
system.membus.snoop_filter.hit_single_requests           95                       # Number of requests hitting in the snoop filter with a single holder of the requested data.
system.membus.snoop_filter.hit_single_snoops            0                       # Number of snoops hitting in the snoop filter with a single holder of the requested data.
system.membus.snoop_filter.tot_requests           658                       # Total number of requests made to the snoop filter.
system.membus.snoop_filter.tot_snoops               0                       # Total number of snoops made to the snoop filter.
system.clk_domain.clock                          1000                       # Clock period in ticks
system.cpu.branchPred.lookups                    3185                       # Number of BP lookups
system.cpu.branchPred.condPredicted              2071                       # Number of conditional branches predicted
system.cpu.branchPred.condIncorrect               560                       # Number of conditional branches incorrect
system.cpu.branchPred.BTBLookups                 1573                       # Number of BTB lookups
system.cpu.branchPred.BTBHits                     600                       # Number of BTB hits
system.cpu.branchPred.BTBHitPct             38.143675                       # BTB Hit Percentage
system.cpu.branchPred.RASUsed                     262                       # Number of times the RAS was used to get a target.
system.cpu.branchPred.RASIncorrect                  2                       # Number of incorrect RAS predictions.
system.cpu.branchPred.indirectLookups             162                       # Number of indirect predictor lookups.
system.cpu.branchPred.indirectHits                 19                       # Number of indirect target hits.
system.cpu.branchPred.indirectMisses              143                       # Number of indirect misses.
system.cpu.branchPred.indirectMispredicted           68                       # Number of mispredicted indirect branches.
system.cpu.dcache.demand_hits::.cpu.data         3045                       # number of demand (read+write) hits
system.cpu.dcache.demand_hits::total             3045                       # number of demand (read+write) hits
system.cpu.dcache.overall_hits::.cpu.data         3066                       # number of overall hits
system.cpu.dcache.overall_hits::total            3066                       # number of overall hits
system.cpu.dcache.demand_misses::.cpu.data          175                       # number of demand (read+write) misses
system.cpu.dcache.demand_misses::total            175                       # number of demand (read+write) misses
system.cpu.dcache.overall_misses::.cpu.data          183                       # number of overall misses
system.cpu.dcache.overall_misses::total           183                       # number of overall misses
system.cpu.dcache.demand_miss_latency::.cpu.data   8760080000                       # number of demand (read+write) miss cycles
system.cpu.dcache.demand_miss_latency::total   8760080000                       # number of demand (read+write) miss cycles
system.cpu.dcache.overall_miss_latency::.cpu.data   8760080000                       # number of overall miss cycles
system.cpu.dcache.overall_miss_latency::total   8760080000                       # number of overall miss cycles
system.cpu.dcache.demand_accesses::.cpu.data         3220                       # number of demand (read+write) accesses
system.cpu.dcache.demand_accesses::total         3220                       # number of demand (read+write) accesses
system.cpu.dcache.overall_accesses::.cpu.data         3249                       # number of overall (read+write) accesses
system.cpu.dcache.overall_accesses::total         3249                       # number of overall (read+write) accesses
system.cpu.dcache.demand_miss_rate::.cpu.data     0.054348                       # miss rate for demand accesses
system.cpu.dcache.demand_miss_rate::total     0.054348                       # miss rate for demand accesses
system.cpu.dcache.overall_miss_rate::.cpu.data     0.056325                       # miss rate for overall accesses
system.cpu.dcache.overall_miss_rate::total     0.056325                       # miss rate for overall accesses
system.cpu.dcache.demand_avg_miss_latency::.cpu.data     50057600                       # average overall miss latency
system.cpu.dcache.demand_avg_miss_latency::total     50057600                       # average overall miss latency
system.cpu.dcache.overall_avg_miss_latency::.cpu.data 47869289.617486                       # average overall miss latency
system.cpu.dcache.overall_avg_miss_latency::total 47869289.617486                       # average overall miss latency
system.cpu.dcache.blocked_cycles::no_mshrs            0                       # number of cycles access was blocked
system.cpu.dcache.blocked_cycles::no_targets            0                       # number of cycles access was blocked
system.cpu.dcache.blocked::no_mshrs                 0                       # number of cycles access was blocked
system.cpu.dcache.blocked::no_targets               0                       # number of cycles access was blocked
system.cpu.dcache.avg_blocked_cycles::no_mshrs          nan                       # average number of cycles each access was blocked
system.cpu.dcache.avg_blocked_cycles::no_targets          nan                       # average number of cycles each access was blocked
system.cpu.dcache.demand_mshr_hits::.cpu.data           20                       # number of demand (read+write) MSHR hits
system.cpu.dcache.demand_mshr_hits::total           20                       # number of demand (read+write) MSHR hits
system.cpu.dcache.overall_mshr_hits::.cpu.data           20                       # number of overall MSHR hits
system.cpu.dcache.overall_mshr_hits::total           20                       # number of overall MSHR hits
system.cpu.dcache.demand_mshr_misses::.cpu.data          155                       # number of demand (read+write) MSHR misses
system.cpu.dcache.demand_mshr_misses::total          155                       # number of demand (read+write) MSHR misses
system.cpu.dcache.overall_mshr_misses::.cpu.data          163                       # number of overall MSHR misses
system.cpu.dcache.overall_mshr_misses::total          163                       # number of overall MSHR misses
system.cpu.dcache.demand_mshr_miss_latency::.cpu.data   3330624000                       # number of demand (read+write) MSHR miss cycles
system.cpu.dcache.demand_mshr_miss_latency::total   3330624000                       # number of demand (read+write) MSHR miss cycles
system.cpu.dcache.overall_mshr_miss_latency::.cpu.data   3491128000                       # number of overall MSHR miss cycles
system.cpu.dcache.overall_mshr_miss_latency::total   3491128000                       # number of overall MSHR miss cycles
system.cpu.dcache.demand_mshr_miss_rate::.cpu.data     0.048137                       # mshr miss rate for demand accesses
system.cpu.dcache.demand_mshr_miss_rate::total     0.048137                       # mshr miss rate for demand accesses
system.cpu.dcache.overall_mshr_miss_rate::.cpu.data     0.050169                       # mshr miss rate for overall accesses
system.cpu.dcache.overall_mshr_miss_rate::total     0.050169                       # mshr miss rate for overall accesses
system.cpu.dcache.demand_avg_mshr_miss_latency::.cpu.data 21487896.774194                       # average overall mshr miss latency
system.cpu.dcache.demand_avg_mshr_miss_latency::total 21487896.774194                       # average overall mshr miss latency
system.cpu.dcache.overall_avg_mshr_miss_latency::.cpu.data 21417963.190184                       # average overall mshr miss latency
system.cpu.dcache.overall_avg_mshr_miss_latency::total 21417963.190184                       # average overall mshr miss latency
system.cpu.dcache.replacements                      0                       # number of replacements
system.cpu.dcache.ReadReq_hits::.cpu.data         1608                       # number of ReadReq hits
system.cpu.dcache.ReadReq_hits::total            1608                       # number of ReadReq hits
system.cpu.dcache.ReadReq_misses::.cpu.data           87                       # number of ReadReq misses
system.cpu.dcache.ReadReq_misses::total            87                       # number of ReadReq misses
system.cpu.dcache.ReadReq_miss_latency::.cpu.data   4550008000                       # number of ReadReq miss cycles
system.cpu.dcache.ReadReq_miss_latency::total   4550008000                       # number of ReadReq miss cycles
system.cpu.dcache.ReadReq_accesses::.cpu.data         1695                       # number of ReadReq accesses(hits+misses)
system.cpu.dcache.ReadReq_accesses::total         1695                       # number of ReadReq accesses(hits+misses)
system.cpu.dcache.ReadReq_miss_rate::.cpu.data     0.051327                       # miss rate for ReadReq accesses
system.cpu.dcache.ReadReq_miss_rate::total     0.051327                       # miss rate for ReadReq accesses
system.cpu.dcache.ReadReq_avg_miss_latency::.cpu.data 52298942.528736                       # average ReadReq miss latency
system.cpu.dcache.ReadReq_avg_miss_latency::total 52298942.528736                       # average ReadReq miss latency
system.cpu.dcache.ReadReq_mshr_hits::.cpu.data            2                       # number of ReadReq MSHR hits
system.cpu.dcache.ReadReq_mshr_hits::total            2                       # number of ReadReq MSHR hits
system.cpu.dcache.ReadReq_mshr_misses::.cpu.data           85                       # number of ReadReq MSHR misses
system.cpu.dcache.ReadReq_mshr_misses::total           85                       # number of ReadReq MSHR misses
system.cpu.dcache.ReadReq_mshr_miss_latency::.cpu.data   1925947000                       # number of ReadReq MSHR miss cycles
system.cpu.dcache.ReadReq_mshr_miss_latency::total   1925947000                       # number of ReadReq MSHR miss cycles
system.cpu.dcache.ReadReq_mshr_miss_rate::.cpu.data     0.050147                       # mshr miss rate for ReadReq accesses
system.cpu.dcache.ReadReq_mshr_miss_rate::total     0.050147                       # mshr miss rate for ReadReq accesses
system.cpu.dcache.ReadReq_avg_mshr_miss_latency::.cpu.data     22658200                       # average ReadReq mshr miss latency
system.cpu.dcache.ReadReq_avg_mshr_miss_latency::total     22658200                       # average ReadReq mshr miss latency
system.cpu.dcache.WriteReq_hits::.cpu.data         1437                       # number of WriteReq hits
system.cpu.dcache.WriteReq_hits::total           1437                       # number of WriteReq hits
system.cpu.dcache.WriteReq_misses::.cpu.data           88                       # number of WriteReq misses
system.cpu.dcache.WriteReq_misses::total           88                       # number of WriteReq misses
system.cpu.dcache.WriteReq_miss_latency::.cpu.data   4210072000                       # number of WriteReq miss cycles
system.cpu.dcache.WriteReq_miss_latency::total   4210072000                       # number of WriteReq miss cycles
system.cpu.dcache.WriteReq_accesses::.cpu.data         1525                       # number of WriteReq accesses(hits+misses)
system.cpu.dcache.WriteReq_accesses::total         1525                       # number of WriteReq accesses(hits+misses)
system.cpu.dcache.WriteReq_miss_rate::.cpu.data     0.057705                       # miss rate for WriteReq accesses
system.cpu.dcache.WriteReq_miss_rate::total     0.057705                       # miss rate for WriteReq accesses
system.cpu.dcache.WriteReq_avg_miss_latency::.cpu.data 47841727.272727                       # average WriteReq miss latency
system.cpu.dcache.WriteReq_avg_miss_latency::total 47841727.272727                       # average WriteReq miss latency
system.cpu.dcache.WriteReq_mshr_hits::.cpu.data           18                       # number of WriteReq MSHR hits
system.cpu.dcache.WriteReq_mshr_hits::total           18                       # number of WriteReq MSHR hits
system.cpu.dcache.WriteReq_mshr_misses::.cpu.data           70                       # number of WriteReq MSHR misses
system.cpu.dcache.WriteReq_mshr_misses::total           70                       # number of WriteReq MSHR misses
system.cpu.dcache.WriteReq_mshr_miss_latency::.cpu.data   1404677000                       # number of WriteReq MSHR miss cycles
system.cpu.dcache.WriteReq_mshr_miss_latency::total   1404677000                       # number of WriteReq MSHR miss cycles
system.cpu.dcache.WriteReq_mshr_miss_rate::.cpu.data     0.045902                       # mshr miss rate for WriteReq accesses
system.cpu.dcache.WriteReq_mshr_miss_rate::total     0.045902                       # mshr miss rate for WriteReq accesses
system.cpu.dcache.WriteReq_avg_mshr_miss_latency::.cpu.data 20066814.285714                       # average WriteReq mshr miss latency
system.cpu.dcache.WriteReq_avg_mshr_miss_latency::total 20066814.285714                       # average WriteReq mshr miss latency
system.cpu.dcache.SoftPFReq_hits::.cpu.data           21                       # number of SoftPFReq hits
system.cpu.dcache.SoftPFReq_hits::total            21                       # number of SoftPFReq hits
system.cpu.dcache.SoftPFReq_misses::.cpu.data            8                       # number of SoftPFReq misses
system.cpu.dcache.SoftPFReq_misses::total            8                       # number of SoftPFReq misses
system.cpu.dcache.SoftPFReq_accesses::.cpu.data           29                       # number of SoftPFReq accesses(hits+misses)
system.cpu.dcache.SoftPFReq_accesses::total           29                       # number of SoftPFReq accesses(hits+misses)
system.cpu.dcache.SoftPFReq_miss_rate::.cpu.data     0.275862                       # miss rate for SoftPFReq accesses
system.cpu.dcache.SoftPFReq_miss_rate::total     0.275862                       # miss rate for SoftPFReq accesses
system.cpu.dcache.SoftPFReq_mshr_misses::.cpu.data            8                       # number of SoftPFReq MSHR misses
system.cpu.dcache.SoftPFReq_mshr_misses::total            8                       # number of SoftPFReq MSHR misses
system.cpu.dcache.SoftPFReq_mshr_miss_latency::.cpu.data    160504000                       # number of SoftPFReq MSHR miss cycles
system.cpu.dcache.SoftPFReq_mshr_miss_latency::total    160504000                       # number of SoftPFReq MSHR miss cycles
system.cpu.dcache.SoftPFReq_mshr_miss_rate::.cpu.data     0.275862                       # mshr miss rate for SoftPFReq accesses
system.cpu.dcache.SoftPFReq_mshr_miss_rate::total     0.275862                       # mshr miss rate for SoftPFReq accesses
system.cpu.dcache.SoftPFReq_avg_mshr_miss_latency::.cpu.data     20063000                       # average SoftPFReq mshr miss latency
system.cpu.dcache.SoftPFReq_avg_mshr_miss_latency::total     20063000                       # average SoftPFReq mshr miss latency
system.cpu.dcache.LoadLockedReq_hits::.cpu.data           16                       # number of LoadLockedReq hits
system.cpu.dcache.LoadLockedReq_hits::total           16                       # number of LoadLockedReq hits
system.cpu.dcache.LoadLockedReq_misses::.cpu.data            2                       # number of LoadLockedReq misses
system.cpu.dcache.LoadLockedReq_misses::total            2                       # number of LoadLockedReq misses
system.cpu.dcache.LoadLockedReq_miss_latency::.cpu.data    100000000                       # number of LoadLockedReq miss cycles
system.cpu.dcache.LoadLockedReq_miss_latency::total    100000000                       # number of LoadLockedReq miss cycles
system.cpu.dcache.LoadLockedReq_accesses::.cpu.data           18                       # number of LoadLockedReq accesses(hits+misses)
system.cpu.dcache.LoadLockedReq_accesses::total           18                       # number of LoadLockedReq accesses(hits+misses)
system.cpu.dcache.LoadLockedReq_miss_rate::.cpu.data     0.111111                       # miss rate for LoadLockedReq accesses
system.cpu.dcache.LoadLockedReq_miss_rate::total     0.111111                       # miss rate for LoadLockedReq accesses
system.cpu.dcache.LoadLockedReq_avg_miss_latency::.cpu.data     50000000                       # average LoadLockedReq miss latency
system.cpu.dcache.LoadLockedReq_avg_miss_latency::total     50000000                       # average LoadLockedReq miss latency
system.cpu.dcache.LoadLockedReq_mshr_misses::.cpu.data            2                       # number of LoadLockedReq MSHR misses
system.cpu.dcache.LoadLockedReq_mshr_misses::total            2                       # number of LoadLockedReq MSHR misses
system.cpu.dcache.LoadLockedReq_mshr_miss_latency::.cpu.data     40126000                       # number of LoadLockedReq MSHR miss cycles
system.cpu.dcache.LoadLockedReq_mshr_miss_latency::total     40126000                       # number of LoadLockedReq MSHR miss cycles
system.cpu.dcache.LoadLockedReq_mshr_miss_rate::.cpu.data     0.111111                       # mshr miss rate for LoadLockedReq accesses
system.cpu.dcache.LoadLockedReq_mshr_miss_rate::total     0.111111                       # mshr miss rate for LoadLockedReq accesses
system.cpu.dcache.LoadLockedReq_avg_mshr_miss_latency::.cpu.data     20063000                       # average LoadLockedReq mshr miss latency
system.cpu.dcache.LoadLockedReq_avg_mshr_miss_latency::total     20063000                       # average LoadLockedReq mshr miss latency
system.cpu.dcache.StoreCondReq_hits::.cpu.data           18                       # number of StoreCondReq hits
system.cpu.dcache.StoreCondReq_hits::total           18                       # number of StoreCondReq hits
system.cpu.dcache.StoreCondReq_accesses::.cpu.data           18                       # number of StoreCondReq accesses(hits+misses)
system.cpu.dcache.StoreCondReq_accesses::total           18                       # number of StoreCondReq accesses(hits+misses)
system.cpu.dcache.power_state.pwrStateResidencyTicks::UNDEFINED 163460000000                       # Cumulative time (in ticks) in various power states
system.cpu.dcache.tags.tagsinuse           100.097509                       # Cycle average of tags in use
system.cpu.dcache.tags.total_refs                3265                       # Total number of references to valid blocks.
system.cpu.dcache.tags.sampled_refs               165                       # Sample count of references to valid blocks.
system.cpu.dcache.tags.avg_refs             19.787879                       # Average number of references to valid blocks.
system.cpu.dcache.tags.warmup_cycle         140063000                       # Cycle when the warmup percentage was hit.
system.cpu.dcache.tags.occ_blocks::.cpu.data   100.097509                       # Average occupied blocks per requestor
system.cpu.dcache.tags.occ_percent::.cpu.data     0.097751                       # Average percentage of cache occupancy
system.cpu.dcache.tags.occ_percent::total     0.097751                       # Average percentage of cache occupancy
system.cpu.dcache.tags.occ_task_id_blocks::1024          165                       # Occupied blocks per task id
system.cpu.dcache.tags.age_task_id_blocks_1024::3            9                       # Occupied blocks per task id
system.cpu.dcache.tags.age_task_id_blocks_1024::4          156                       # Occupied blocks per task id
system.cpu.dcache.tags.occ_task_id_percent::1024     0.161133                       # Percentage of cache occupancy per task id
system.cpu.dcache.tags.tag_accesses              6735                       # Number of tag accesses
system.cpu.dcache.tags.data_accesses             6735                       # Number of data accesses
system.cpu.dcache.tags.power_state.pwrStateResidencyTicks::UNDEFINED 163460000000                       # Cumulative time (in ticks) in various power states
system.cpu.dtb.instHits                             0                       # ITB inst hits
system.cpu.dtb.instMisses                           0                       # ITB inst misses
system.cpu.dtb.readHits                             0                       # DTB read hits
system.cpu.dtb.readMisses                           0                       # DTB read misses
system.cpu.dtb.writeHits                            0                       # DTB write hits
system.cpu.dtb.writeMisses                          0                       # DTB write misses
system.cpu.dtb.inserts                              0                       # Number of times an entry is inserted into the TLB
system.cpu.dtb.flushTlb                             0                       # Number of times complete TLB was flushed
system.cpu.dtb.flushTlbMva                          0                       # Number of times TLB was flushed by MVA
system.cpu.dtb.flushTlbMvaAsid                      0                       # Number of times TLB was flushed by MVA & ASID
system.cpu.dtb.flushTlbAsid                         0                       # Number of times TLB was flushed by ASID
system.cpu.dtb.flushedEntries                       0                       # Number of entries that have been flushed from TLB
system.cpu.dtb.alignFaults                          0                       # Number of TLB faults due to alignment restrictions
system.cpu.dtb.prefetchFaults                       0                       # Number of TLB faults due to prefetch
system.cpu.dtb.domainFaults                         0                       # Number of TLB faults due to domain restrictions
system.cpu.dtb.permsFaults                          0                       # Number of TLB faults due to permissions restrictions
system.cpu.dtb.readAccesses                         0                       # DTB read accesses
system.cpu.dtb.writeAccesses                        0                       # DTB write accesses
system.cpu.dtb.instAccesses                         0                       # ITB inst accesses
system.cpu.dtb.hits                                 0                       # Total TLB (inst and data) hits
system.cpu.dtb.misses                               0                       # Total TLB (inst and data) misses
system.cpu.dtb.accesses                             0                       # Total TLB (inst and data) accesses
system.cpu.dtb.stage2_mmu.stage2_tlb.instHits            0                       # ITB inst hits
system.cpu.dtb.stage2_mmu.stage2_tlb.instMisses            0                       # ITB inst misses
system.cpu.dtb.stage2_mmu.stage2_tlb.readHits            0                       # DTB read hits
system.cpu.dtb.stage2_mmu.stage2_tlb.readMisses            0                       # DTB read misses
system.cpu.dtb.stage2_mmu.stage2_tlb.writeHits            0                       # DTB write hits
system.cpu.dtb.stage2_mmu.stage2_tlb.writeMisses            0                       # DTB write misses
system.cpu.dtb.stage2_mmu.stage2_tlb.inserts            0                       # Number of times an entry is inserted into the TLB
system.cpu.dtb.stage2_mmu.stage2_tlb.flushTlb            0                       # Number of times complete TLB was flushed
system.cpu.dtb.stage2_mmu.stage2_tlb.flushTlbMva            0                       # Number of times TLB was flushed by MVA
system.cpu.dtb.stage2_mmu.stage2_tlb.flushTlbMvaAsid            0                       # Number of times TLB was flushed by MVA & ASID
system.cpu.dtb.stage2_mmu.stage2_tlb.flushTlbAsid            0                       # Number of times TLB was flushed by ASID
system.cpu.dtb.stage2_mmu.stage2_tlb.flushedEntries            0                       # Number of entries that have been flushed from TLB
system.cpu.dtb.stage2_mmu.stage2_tlb.alignFaults            0                       # Number of TLB faults due to alignment restrictions
system.cpu.dtb.stage2_mmu.stage2_tlb.prefetchFaults            0                       # Number of TLB faults due to prefetch
system.cpu.dtb.stage2_mmu.stage2_tlb.domainFaults            0                       # Number of TLB faults due to domain restrictions
system.cpu.dtb.stage2_mmu.stage2_tlb.permsFaults            0                       # Number of TLB faults due to permissions restrictions
system.cpu.dtb.stage2_mmu.stage2_tlb.readAccesses            0                       # DTB read accesses
system.cpu.dtb.stage2_mmu.stage2_tlb.writeAccesses            0                       # DTB write accesses
system.cpu.dtb.stage2_mmu.stage2_tlb.instAccesses            0                       # ITB inst accesses
system.cpu.dtb.stage2_mmu.stage2_tlb.hits            0                       # Total TLB (inst and data) hits
system.cpu.dtb.stage2_mmu.stage2_tlb.misses            0                       # Total TLB (inst and data) misses
system.cpu.dtb.stage2_mmu.stage2_tlb.accesses            0                       # Total TLB (inst and data) accesses
system.cpu.dtb.stage2_mmu.stage2_tlb.walker.walks            0                       # Table walker walks requested
system.cpu.dtb.stage2_mmu.stage2_tlb.walker.requestOrigin_Requested::Data            0                       # Table walker requests started/completed, data/inst
system.cpu.dtb.stage2_mmu.stage2_tlb.walker.requestOrigin_Requested::Inst            0                       # Table walker requests started/completed, data/inst
system.cpu.dtb.stage2_mmu.stage2_tlb.walker.requestOrigin_Requested::total            0                       # Table walker requests started/completed, data/inst
system.cpu.dtb.stage2_mmu.stage2_tlb.walker.requestOrigin_Completed::Data            0                       # Table walker requests started/completed, data/inst
system.cpu.dtb.stage2_mmu.stage2_tlb.walker.requestOrigin_Completed::Inst            0                       # Table walker requests started/completed, data/inst
system.cpu.dtb.stage2_mmu.stage2_tlb.walker.requestOrigin_Completed::total            0                       # Table walker requests started/completed, data/inst
system.cpu.dtb.stage2_mmu.stage2_tlb.walker.requestOrigin::total            0                       # Table walker requests started/completed, data/inst
system.cpu.dtb.stage2_mmu.stage2_tlb.walker.power_state.pwrStateResidencyTicks::UNDEFINED 163460000000                       # Cumulative time (in ticks) in various power states
system.cpu.dtb.walker.walks                         0                       # Table walker walks requested
system.cpu.dtb.walker.requestOrigin_Requested::Data            0                       # Table walker requests started/completed, data/inst
system.cpu.dtb.walker.requestOrigin_Requested::Inst            0                       # Table walker requests started/completed, data/inst
system.cpu.dtb.walker.requestOrigin_Requested::total            0                       # Table walker requests started/completed, data/inst
system.cpu.dtb.walker.requestOrigin_Completed::Data            0                       # Table walker requests started/completed, data/inst
system.cpu.dtb.walker.requestOrigin_Completed::Inst            0                       # Table walker requests started/completed, data/inst
system.cpu.dtb.walker.requestOrigin_Completed::total            0                       # Table walker requests started/completed, data/inst
system.cpu.dtb.walker.requestOrigin::total            0                       # Table walker requests started/completed, data/inst
system.cpu.dtb.walker.power_state.pwrStateResidencyTicks::UNDEFINED 163460000000                       # Cumulative time (in ticks) in various power states
system.cpu.fetch2.intInstructions                9602                       # Number of integer instructions successfully decoded
system.cpu.fetch2.fpInstructions                    0                       # Number of floating point instructions successfully decoded
system.cpu.fetch2.vecInstructions                   0                       # Number of SIMD instructions successfully decoded
system.cpu.fetch2.loadInstructions               2257                       # Number of memory load instructions successfully decoded
system.cpu.fetch2.storeInstructions              1336                       # Number of memory store instructions successfully decoded
system.cpu.fetch2.amoInstructions                   0                       # Number of memory atomic instructions successfully decoded
system.cpu.icache.demand_hits::.cpu.inst         3230                       # number of demand (read+write) hits
system.cpu.icache.demand_hits::total             3230                       # number of demand (read+write) hits
system.cpu.icache.overall_hits::.cpu.inst         3230                       # number of overall hits
system.cpu.icache.overall_hits::total            3230                       # number of overall hits
system.cpu.icache.demand_misses::.cpu.inst          416                       # number of demand (read+write) misses
system.cpu.icache.demand_misses::total            416                       # number of demand (read+write) misses
system.cpu.icache.overall_misses::.cpu.inst          416                       # number of overall misses
system.cpu.icache.overall_misses::total           416                       # number of overall misses
system.cpu.icache.demand_miss_latency::.cpu.inst  20980000000                       # number of demand (read+write) miss cycles
system.cpu.icache.demand_miss_latency::total  20980000000                       # number of demand (read+write) miss cycles
system.cpu.icache.overall_miss_latency::.cpu.inst  20980000000                       # number of overall miss cycles
system.cpu.icache.overall_miss_latency::total  20980000000                       # number of overall miss cycles
system.cpu.icache.demand_accesses::.cpu.inst         3646                       # number of demand (read+write) accesses
system.cpu.icache.demand_accesses::total         3646                       # number of demand (read+write) accesses
system.cpu.icache.overall_accesses::.cpu.inst         3646                       # number of overall (read+write) accesses
system.cpu.icache.overall_accesses::total         3646                       # number of overall (read+write) accesses
system.cpu.icache.demand_miss_rate::.cpu.inst     0.114098                       # miss rate for demand accesses
system.cpu.icache.demand_miss_rate::total     0.114098                       # miss rate for demand accesses
system.cpu.icache.overall_miss_rate::.cpu.inst     0.114098                       # miss rate for overall accesses
system.cpu.icache.overall_miss_rate::total     0.114098                       # miss rate for overall accesses
system.cpu.icache.demand_avg_miss_latency::.cpu.inst 50432692.307692                       # average overall miss latency
system.cpu.icache.demand_avg_miss_latency::total 50432692.307692                       # average overall miss latency
system.cpu.icache.overall_avg_miss_latency::.cpu.inst 50432692.307692                       # average overall miss latency
system.cpu.icache.overall_avg_miss_latency::total 50432692.307692                       # average overall miss latency
system.cpu.icache.blocked_cycles::no_mshrs            0                       # number of cycles access was blocked
system.cpu.icache.blocked_cycles::no_targets            0                       # number of cycles access was blocked
system.cpu.icache.blocked::no_mshrs                 0                       # number of cycles access was blocked
system.cpu.icache.blocked::no_targets               0                       # number of cycles access was blocked
system.cpu.icache.avg_blocked_cycles::no_mshrs          nan                       # average number of cycles each access was blocked
system.cpu.icache.avg_blocked_cycles::no_targets          nan                       # average number of cycles each access was blocked
system.cpu.icache.writebacks::.writebacks           77                       # number of writebacks
system.cpu.icache.writebacks::total                77                       # number of writebacks
system.cpu.icache.demand_mshr_misses::.cpu.inst          416                       # number of demand (read+write) MSHR misses
system.cpu.icache.demand_mshr_misses::total          416                       # number of demand (read+write) MSHR misses
system.cpu.icache.overall_mshr_misses::.cpu.inst          416                       # number of overall MSHR misses
system.cpu.icache.overall_mshr_misses::total          416                       # number of overall MSHR misses
system.cpu.icache.demand_mshr_miss_latency::.cpu.inst   8527636000                       # number of demand (read+write) MSHR miss cycles
system.cpu.icache.demand_mshr_miss_latency::total   8527636000                       # number of demand (read+write) MSHR miss cycles
system.cpu.icache.overall_mshr_miss_latency::.cpu.inst   8527636000                       # number of overall MSHR miss cycles
system.cpu.icache.overall_mshr_miss_latency::total   8527636000                       # number of overall MSHR miss cycles
system.cpu.icache.demand_mshr_miss_rate::.cpu.inst     0.114098                       # mshr miss rate for demand accesses
system.cpu.icache.demand_mshr_miss_rate::total     0.114098                       # mshr miss rate for demand accesses
system.cpu.icache.overall_mshr_miss_rate::.cpu.inst     0.114098                       # mshr miss rate for overall accesses
system.cpu.icache.overall_mshr_miss_rate::total     0.114098                       # mshr miss rate for overall accesses
system.cpu.icache.demand_avg_mshr_miss_latency::.cpu.inst     20499125                       # average overall mshr miss latency
system.cpu.icache.demand_avg_mshr_miss_latency::total     20499125                       # average overall mshr miss latency
system.cpu.icache.overall_avg_mshr_miss_latency::.cpu.inst     20499125                       # average overall mshr miss latency
system.cpu.icache.overall_avg_mshr_miss_latency::total     20499125                       # average overall mshr miss latency
system.cpu.icache.replacements                     77                       # number of replacements
system.cpu.icache.ReadReq_hits::.cpu.inst         3230                       # number of ReadReq hits
system.cpu.icache.ReadReq_hits::total            3230                       # number of ReadReq hits
system.cpu.icache.ReadReq_misses::.cpu.inst          416                       # number of ReadReq misses
system.cpu.icache.ReadReq_misses::total           416                       # number of ReadReq misses
system.cpu.icache.ReadReq_miss_latency::.cpu.inst  20980000000                       # number of ReadReq miss cycles
system.cpu.icache.ReadReq_miss_latency::total  20980000000                       # number of ReadReq miss cycles
system.cpu.icache.ReadReq_accesses::.cpu.inst         3646                       # number of ReadReq accesses(hits+misses)
system.cpu.icache.ReadReq_accesses::total         3646                       # number of ReadReq accesses(hits+misses)
system.cpu.icache.ReadReq_miss_rate::.cpu.inst     0.114098                       # miss rate for ReadReq accesses
system.cpu.icache.ReadReq_miss_rate::total     0.114098                       # miss rate for ReadReq accesses
system.cpu.icache.ReadReq_avg_miss_latency::.cpu.inst 50432692.307692                       # average ReadReq miss latency
system.cpu.icache.ReadReq_avg_miss_latency::total 50432692.307692                       # average ReadReq miss latency
system.cpu.icache.ReadReq_mshr_misses::.cpu.inst          416                       # number of ReadReq MSHR misses
system.cpu.icache.ReadReq_mshr_misses::total          416                       # number of ReadReq MSHR misses
system.cpu.icache.ReadReq_mshr_miss_latency::.cpu.inst   8527636000                       # number of ReadReq MSHR miss cycles
system.cpu.icache.ReadReq_mshr_miss_latency::total   8527636000                       # number of ReadReq MSHR miss cycles
system.cpu.icache.ReadReq_mshr_miss_rate::.cpu.inst     0.114098                       # mshr miss rate for ReadReq accesses
system.cpu.icache.ReadReq_mshr_miss_rate::total     0.114098                       # mshr miss rate for ReadReq accesses
system.cpu.icache.ReadReq_avg_mshr_miss_latency::.cpu.inst     20499125                       # average ReadReq mshr miss latency
system.cpu.icache.ReadReq_avg_mshr_miss_latency::total     20499125                       # average ReadReq mshr miss latency
system.cpu.icache.power_state.pwrStateResidencyTicks::UNDEFINED 163460000000                       # Cumulative time (in ticks) in various power states
system.cpu.icache.tags.tagsinuse           194.336764                       # Cycle average of tags in use
system.cpu.icache.tags.total_refs                3646                       # Total number of references to valid blocks.
system.cpu.icache.tags.sampled_refs               416                       # Sample count of references to valid blocks.
system.cpu.icache.tags.avg_refs              8.764423                       # Average number of references to valid blocks.
system.cpu.icache.tags.warmup_cycle          30063000                       # Cycle when the warmup percentage was hit.
system.cpu.icache.tags.occ_blocks::.cpu.inst   194.336764                       # Average occupied blocks per requestor
system.cpu.icache.tags.occ_percent::.cpu.inst     0.379564                       # Average percentage of cache occupancy
system.cpu.icache.tags.occ_percent::total     0.379564                       # Average percentage of cache occupancy
system.cpu.icache.tags.occ_task_id_blocks::1024          339                       # Occupied blocks per task id
system.cpu.icache.tags.age_task_id_blocks_1024::2            3                       # Occupied blocks per task id
system.cpu.icache.tags.age_task_id_blocks_1024::3           30                       # Occupied blocks per task id
system.cpu.icache.tags.age_task_id_blocks_1024::4          306                       # Occupied blocks per task id
system.cpu.icache.tags.occ_task_id_percent::1024     0.662109                       # Percentage of cache occupancy per task id
system.cpu.icache.tags.tag_accesses              7708                       # Number of tag accesses
system.cpu.icache.tags.data_accesses             7708                       # Number of data accesses
system.cpu.icache.tags.power_state.pwrStateResidencyTicks::UNDEFINED 163460000000                       # Cumulative time (in ticks) in various power states
system.cpu.itb.instHits                             0                       # ITB inst hits
system.cpu.itb.instMisses                           0                       # ITB inst misses
system.cpu.itb.readHits                             0                       # DTB read hits
system.cpu.itb.readMisses                           0                       # DTB read misses
system.cpu.itb.writeHits                            0                       # DTB write hits
system.cpu.itb.writeMisses                          0                       # DTB write misses
system.cpu.itb.inserts                              0                       # Number of times an entry is inserted into the TLB
system.cpu.itb.flushTlb                             0                       # Number of times complete TLB was flushed
system.cpu.itb.flushTlbMva                          0                       # Number of times TLB was flushed by MVA
system.cpu.itb.flushTlbMvaAsid                      0                       # Number of times TLB was flushed by MVA & ASID
system.cpu.itb.flushTlbAsid                         0                       # Number of times TLB was flushed by ASID
system.cpu.itb.flushedEntries                       0                       # Number of entries that have been flushed from TLB
system.cpu.itb.alignFaults                          0                       # Number of TLB faults due to alignment restrictions
system.cpu.itb.prefetchFaults                       0                       # Number of TLB faults due to prefetch
system.cpu.itb.domainFaults                         0                       # Number of TLB faults due to domain restrictions
system.cpu.itb.permsFaults                          0                       # Number of TLB faults due to permissions restrictions
system.cpu.itb.readAccesses                         0                       # DTB read accesses
system.cpu.itb.writeAccesses                        0                       # DTB write accesses
system.cpu.itb.instAccesses                         0                       # ITB inst accesses
system.cpu.itb.hits                                 0                       # Total TLB (inst and data) hits
system.cpu.itb.misses                               0                       # Total TLB (inst and data) misses
system.cpu.itb.accesses                             0                       # Total TLB (inst and data) accesses
system.cpu.itb.stage2_mmu.stage2_tlb.instHits            0                       # ITB inst hits
system.cpu.itb.stage2_mmu.stage2_tlb.instMisses            0                       # ITB inst misses
system.cpu.itb.stage2_mmu.stage2_tlb.readHits            0                       # DTB read hits
system.cpu.itb.stage2_mmu.stage2_tlb.readMisses            0                       # DTB read misses
system.cpu.itb.stage2_mmu.stage2_tlb.writeHits            0                       # DTB write hits
system.cpu.itb.stage2_mmu.stage2_tlb.writeMisses            0                       # DTB write misses
system.cpu.itb.stage2_mmu.stage2_tlb.inserts            0                       # Number of times an entry is inserted into the TLB
system.cpu.itb.stage2_mmu.stage2_tlb.flushTlb            0                       # Number of times complete TLB was flushed
system.cpu.itb.stage2_mmu.stage2_tlb.flushTlbMva            0                       # Number of times TLB was flushed by MVA
system.cpu.itb.stage2_mmu.stage2_tlb.flushTlbMvaAsid            0                       # Number of times TLB was flushed by MVA & ASID
system.cpu.itb.stage2_mmu.stage2_tlb.flushTlbAsid            0                       # Number of times TLB was flushed by ASID
system.cpu.itb.stage2_mmu.stage2_tlb.flushedEntries            0                       # Number of entries that have been flushed from TLB
system.cpu.itb.stage2_mmu.stage2_tlb.alignFaults            0                       # Number of TLB faults due to alignment restrictions
system.cpu.itb.stage2_mmu.stage2_tlb.prefetchFaults            0                       # Number of TLB faults due to prefetch
system.cpu.itb.stage2_mmu.stage2_tlb.domainFaults            0                       # Number of TLB faults due to domain restrictions
system.cpu.itb.stage2_mmu.stage2_tlb.permsFaults            0                       # Number of TLB faults due to permissions restrictions
system.cpu.itb.stage2_mmu.stage2_tlb.readAccesses            0                       # DTB read accesses
system.cpu.itb.stage2_mmu.stage2_tlb.writeAccesses            0                       # DTB write accesses
system.cpu.itb.stage2_mmu.stage2_tlb.instAccesses            0                       # ITB inst accesses
system.cpu.itb.stage2_mmu.stage2_tlb.hits            0                       # Total TLB (inst and data) hits
system.cpu.itb.stage2_mmu.stage2_tlb.misses            0                       # Total TLB (inst and data) misses
system.cpu.itb.stage2_mmu.stage2_tlb.accesses            0                       # Total TLB (inst and data) accesses
system.cpu.itb.stage2_mmu.stage2_tlb.walker.walks            0                       # Table walker walks requested
system.cpu.itb.stage2_mmu.stage2_tlb.walker.requestOrigin_Requested::Data            0                       # Table walker requests started/completed, data/inst
system.cpu.itb.stage2_mmu.stage2_tlb.walker.requestOrigin_Requested::Inst            0                       # Table walker requests started/completed, data/inst
system.cpu.itb.stage2_mmu.stage2_tlb.walker.requestOrigin_Requested::total            0                       # Table walker requests started/completed, data/inst
system.cpu.itb.stage2_mmu.stage2_tlb.walker.requestOrigin_Completed::Data            0                       # Table walker requests started/completed, data/inst
system.cpu.itb.stage2_mmu.stage2_tlb.walker.requestOrigin_Completed::Inst            0                       # Table walker requests started/completed, data/inst
system.cpu.itb.stage2_mmu.stage2_tlb.walker.requestOrigin_Completed::total            0                       # Table walker requests started/completed, data/inst
system.cpu.itb.stage2_mmu.stage2_tlb.walker.requestOrigin::total            0                       # Table walker requests started/completed, data/inst
system.cpu.itb.stage2_mmu.stage2_tlb.walker.power_state.pwrStateResidencyTicks::UNDEFINED 163460000000                       # Cumulative time (in ticks) in various power states
system.cpu.itb.walker.walks                         0                       # Table walker walks requested
system.cpu.itb.walker.requestOrigin_Requested::Data            0                       # Table walker requests started/completed, data/inst
system.cpu.itb.walker.requestOrigin_Requested::Inst            0                       # Table walker requests started/completed, data/inst
system.cpu.itb.walker.requestOrigin_Requested::total            0                       # Table walker requests started/completed, data/inst
system.cpu.itb.walker.requestOrigin_Completed::Data            0                       # Table walker requests started/completed, data/inst
system.cpu.itb.walker.requestOrigin_Completed::Inst            0                       # Table walker requests started/completed, data/inst
system.cpu.itb.walker.requestOrigin_Completed::total            0                       # Table walker requests started/completed, data/inst
system.cpu.itb.walker.requestOrigin::total            0                       # Table walker requests started/completed, data/inst
system.cpu.itb.walker.power_state.pwrStateResidencyTicks::UNDEFINED 163460000000                       # Cumulative time (in ticks) in various power states
system.cpu.power_state.pwrStateResidencyTicks::ON 163460000000                       # Cumulative time (in ticks) in various power states
system.cpu.thread0.numInsts                      8975                       # Number of Instructions committed
system.cpu.thread0.numOps                       10230                       # Number of Ops committed
system.cpu.thread0.numMemRefs                       0                       # Number of Memory References
system.cpu_clk_domain.clock                  10000000                       # Clock period in ticks
system.cpu_voltage_domain.voltage                   1                       # Voltage in Volts
system.mem_ctrls.avgPriority_.writebacks::samples        75.00                       # Average QoS priority value for accepted requests
system.mem_ctrls.avgPriority_.cpu.inst::samples       406.00                       # Average QoS priority value for accepted requests
system.mem_ctrls.avgPriority_.cpu.data::samples       164.00                       # Average QoS priority value for accepted requests
system.mem_ctrls.priorityMinLatency      0.000000032500                       # per QoS priority minimum request to response latency (s)
system.mem_ctrls.priorityMaxLatency      0.136260032500                       # per QoS priority maximum request to response latency (s)
system.mem_ctrls.numReadWriteTurnArounds            3                       # Number of turnarounds from READ to WRITE
system.mem_ctrls.numWriteReadTurnArounds            3                       # Number of turnarounds from WRITE to READ
system.mem_ctrls.numStayReadState               43201                       # Number of times bus staying in READ state
system.mem_ctrls.numStayWriteState                 51                       # Number of times bus staying in WRITE state
system.mem_ctrls.readReqs                         581                       # Number of read requests accepted
system.mem_ctrls.writeReqs                         75                       # Number of write requests accepted
system.mem_ctrls.readBursts                       581                       # Number of controller read bursts, including those serviced by the write queue
system.mem_ctrls.writeBursts                       75                       # Number of controller write bursts, including those merged in the write queue
system.mem_ctrls.servicedByWrQ                     11                       # Number of controller read bursts serviced by the write queue
system.mem_ctrls.mergedWrBursts                     0                       # Number of controller write bursts merged with an existing one
system.mem_ctrls.neitherReadNorWriteReqs            0                       # Number of requests that are neither read nor write
system.mem_ctrls.avgRdQLen                       1.01                       # Average read queue length when enqueuing
system.mem_ctrls.avgWrQLen                      10.32                       # Average write queue length when enqueuing
system.mem_ctrls.numRdRetry                         0                       # Number of times read queue was full causing retry
system.mem_ctrls.numWrRetry                         0                       # Number of times write queue was full causing retry
system.mem_ctrls.readPktSize::0                     0                       # Read request sizes (log2)
system.mem_ctrls.readPktSize::1                     0                       # Read request sizes (log2)
system.mem_ctrls.readPktSize::2                     0                       # Read request sizes (log2)
system.mem_ctrls.readPktSize::3                     0                       # Read request sizes (log2)
system.mem_ctrls.readPktSize::4                     0                       # Read request sizes (log2)
system.mem_ctrls.readPktSize::5                     0                       # Read request sizes (log2)
system.mem_ctrls.readPktSize::6                   581                       # Read request sizes (log2)
system.mem_ctrls.writePktSize::0                    0                       # Write request sizes (log2)
system.mem_ctrls.writePktSize::1                    0                       # Write request sizes (log2)
system.mem_ctrls.writePktSize::2                    0                       # Write request sizes (log2)
system.mem_ctrls.writePktSize::3                    0                       # Write request sizes (log2)
system.mem_ctrls.writePktSize::4                    0                       # Write request sizes (log2)
system.mem_ctrls.writePktSize::5                    0                       # Write request sizes (log2)
system.mem_ctrls.writePktSize::6                   75                       # Write request sizes (log2)
system.mem_ctrls.rdQLenPdf::0                     564                       # What read queue length does an incoming req see
system.mem_ctrls.rdQLenPdf::1                       6                       # What read queue length does an incoming req see
system.mem_ctrls.rdQLenPdf::2                       0                       # What read queue length does an incoming req see
system.mem_ctrls.rdQLenPdf::3                       0                       # What read queue length does an incoming req see
system.mem_ctrls.rdQLenPdf::4                       0                       # What read queue length does an incoming req see
system.mem_ctrls.rdQLenPdf::5                       0                       # What read queue length does an incoming req see
system.mem_ctrls.rdQLenPdf::6                       0                       # What read queue length does an incoming req see
system.mem_ctrls.rdQLenPdf::7                       0                       # What read queue length does an incoming req see
system.mem_ctrls.rdQLenPdf::8                       0                       # What read queue length does an incoming req see
system.mem_ctrls.rdQLenPdf::9                       0                       # What read queue length does an incoming req see
system.mem_ctrls.rdQLenPdf::10                      0                       # What read queue length does an incoming req see
system.mem_ctrls.rdQLenPdf::11                      0                       # What read queue length does an incoming req see
system.mem_ctrls.rdQLenPdf::12                      0                       # What read queue length does an incoming req see
system.mem_ctrls.rdQLenPdf::13                      0                       # What read queue length does an incoming req see
system.mem_ctrls.rdQLenPdf::14                      0                       # What read queue length does an incoming req see
system.mem_ctrls.rdQLenPdf::15                      0                       # What read queue length does an incoming req see
system.mem_ctrls.rdQLenPdf::16                      0                       # What read queue length does an incoming req see
system.mem_ctrls.rdQLenPdf::17                      0                       # What read queue length does an incoming req see
system.mem_ctrls.rdQLenPdf::18                      0                       # What read queue length does an incoming req see
system.mem_ctrls.rdQLenPdf::19                      0                       # What read queue length does an incoming req see
system.mem_ctrls.rdQLenPdf::20                      0                       # What read queue length does an incoming req see
system.mem_ctrls.rdQLenPdf::21                      0                       # What read queue length does an incoming req see
system.mem_ctrls.rdQLenPdf::22                      0                       # What read queue length does an incoming req see
system.mem_ctrls.rdQLenPdf::23                      0                       # What read queue length does an incoming req see
system.mem_ctrls.rdQLenPdf::24                      0                       # What read queue length does an incoming req see
system.mem_ctrls.rdQLenPdf::25                      0                       # What read queue length does an incoming req see
system.mem_ctrls.rdQLenPdf::26                      0                       # What read queue length does an incoming req see
system.mem_ctrls.rdQLenPdf::27                      0                       # What read queue length does an incoming req see
system.mem_ctrls.rdQLenPdf::28                      0                       # What read queue length does an incoming req see
system.mem_ctrls.rdQLenPdf::29                      0                       # What read queue length does an incoming req see
system.mem_ctrls.rdQLenPdf::30                      0                       # What read queue length does an incoming req see
system.mem_ctrls.rdQLenPdf::31                      0                       # What read queue length does an incoming req see
system.mem_ctrls.wrQLenPdf::0                       1                       # What write queue length does an incoming req see
system.mem_ctrls.wrQLenPdf::1                       1                       # What write queue length does an incoming req see
system.mem_ctrls.wrQLenPdf::2                       1                       # What write queue length does an incoming req see
system.mem_ctrls.wrQLenPdf::3                       1                       # What write queue length does an incoming req see
system.mem_ctrls.wrQLenPdf::4                       1                       # What write queue length does an incoming req see
system.mem_ctrls.wrQLenPdf::5                       1                       # What write queue length does an incoming req see
system.mem_ctrls.wrQLenPdf::6                       1                       # What write queue length does an incoming req see
system.mem_ctrls.wrQLenPdf::7                       1                       # What write queue length does an incoming req see
system.mem_ctrls.wrQLenPdf::8                       1                       # What write queue length does an incoming req see
system.mem_ctrls.wrQLenPdf::9                       1                       # What write queue length does an incoming req see
system.mem_ctrls.wrQLenPdf::10                      1                       # What write queue length does an incoming req see
system.mem_ctrls.wrQLenPdf::11                      1                       # What write queue length does an incoming req see
system.mem_ctrls.wrQLenPdf::12                      1                       # What write queue length does an incoming req see
system.mem_ctrls.wrQLenPdf::13                      1                       # What write queue length does an incoming req see
system.mem_ctrls.wrQLenPdf::14                      1                       # What write queue length does an incoming req see
system.mem_ctrls.wrQLenPdf::15                      4                       # What write queue length does an incoming req see
system.mem_ctrls.wrQLenPdf::16                      4                       # What write queue length does an incoming req see
system.mem_ctrls.wrQLenPdf::17                      4                       # What write queue length does an incoming req see
system.mem_ctrls.wrQLenPdf::18                      4                       # What write queue length does an incoming req see
system.mem_ctrls.wrQLenPdf::19                      4                       # What write queue length does an incoming req see
system.mem_ctrls.wrQLenPdf::20                      4                       # What write queue length does an incoming req see
system.mem_ctrls.wrQLenPdf::21                      3                       # What write queue length does an incoming req see
system.mem_ctrls.wrQLenPdf::22                      3                       # What write queue length does an incoming req see
system.mem_ctrls.wrQLenPdf::23                      3                       # What write queue length does an incoming req see
system.mem_ctrls.wrQLenPdf::24                      3                       # What write queue length does an incoming req see
system.mem_ctrls.wrQLenPdf::25                      3                       # What write queue length does an incoming req see
system.mem_ctrls.wrQLenPdf::26                      3                       # What write queue length does an incoming req see
system.mem_ctrls.wrQLenPdf::27                      3                       # What write queue length does an incoming req see
system.mem_ctrls.wrQLenPdf::28                      3                       # What write queue length does an incoming req see
system.mem_ctrls.wrQLenPdf::29                      3                       # What write queue length does an incoming req see
system.mem_ctrls.wrQLenPdf::30                      3                       # What write queue length does an incoming req see
system.mem_ctrls.wrQLenPdf::31                      3                       # What write queue length does an incoming req see
system.mem_ctrls.wrQLenPdf::32                      3                       # What write queue length does an incoming req see
system.mem_ctrls.wrQLenPdf::33                      0                       # What write queue length does an incoming req see
system.mem_ctrls.wrQLenPdf::34                      0                       # What write queue length does an incoming req see
system.mem_ctrls.wrQLenPdf::35                      0                       # What write queue length does an incoming req see
system.mem_ctrls.wrQLenPdf::36                      0                       # What write queue length does an incoming req see
system.mem_ctrls.wrQLenPdf::37                      0                       # What write queue length does an incoming req see
system.mem_ctrls.wrQLenPdf::38                      0                       # What write queue length does an incoming req see
system.mem_ctrls.wrQLenPdf::39                      0                       # What write queue length does an incoming req see
system.mem_ctrls.wrQLenPdf::40                      0                       # What write queue length does an incoming req see
system.mem_ctrls.wrQLenPdf::41                      0                       # What write queue length does an incoming req see
system.mem_ctrls.wrQLenPdf::42                      0                       # What write queue length does an incoming req see
system.mem_ctrls.wrQLenPdf::43                      0                       # What write queue length does an incoming req see
system.mem_ctrls.wrQLenPdf::44                      0                       # What write queue length does an incoming req see
system.mem_ctrls.wrQLenPdf::45                      0                       # What write queue length does an incoming req see
system.mem_ctrls.wrQLenPdf::46                      0                       # What write queue length does an incoming req see
system.mem_ctrls.wrQLenPdf::47                      0                       # What write queue length does an incoming req see
system.mem_ctrls.wrQLenPdf::48                      0                       # What write queue length does an incoming req see
system.mem_ctrls.wrQLenPdf::49                      0                       # What write queue length does an incoming req see
system.mem_ctrls.wrQLenPdf::50                      0                       # What write queue length does an incoming req see
system.mem_ctrls.wrQLenPdf::51                      0                       # What write queue length does an incoming req see
system.mem_ctrls.wrQLenPdf::52                      0                       # What write queue length does an incoming req see
system.mem_ctrls.wrQLenPdf::53                      0                       # What write queue length does an incoming req see
system.mem_ctrls.wrQLenPdf::54                      0                       # What write queue length does an incoming req see
system.mem_ctrls.wrQLenPdf::55                      0                       # What write queue length does an incoming req see
system.mem_ctrls.wrQLenPdf::56                      0                       # What write queue length does an incoming req see
system.mem_ctrls.wrQLenPdf::57                      0                       # What write queue length does an incoming req see
system.mem_ctrls.wrQLenPdf::58                      0                       # What write queue length does an incoming req see
system.mem_ctrls.wrQLenPdf::59                      0                       # What write queue length does an incoming req see
system.mem_ctrls.wrQLenPdf::60                      0                       # What write queue length does an incoming req see
system.mem_ctrls.wrQLenPdf::61                      0                       # What write queue length does an incoming req see
system.mem_ctrls.wrQLenPdf::62                      0                       # What write queue length does an incoming req see
system.mem_ctrls.wrQLenPdf::63                      0                       # What write queue length does an incoming req see
system.mem_ctrls.rdPerTurnAround::samples            3                       # Reads before turning the bus around for writes
system.mem_ctrls.rdPerTurnAround::mean     176.666667                       # Reads before turning the bus around for writes
system.mem_ctrls.rdPerTurnAround::gmean    106.158597                       # Reads before turning the bus around for writes
system.mem_ctrls.rdPerTurnAround::stdev    212.655433                       # Reads before turning the bus around for writes
system.mem_ctrls.rdPerTurnAround::32-47             1     33.33%     33.33% # Reads before turning the bus around for writes
system.mem_ctrls.rdPerTurnAround::48-63             1     33.33%     66.67% # Reads before turning the bus around for writes
system.mem_ctrls.rdPerTurnAround::416-431            1     33.33%    100.00% # Reads before turning the bus around for writes
system.mem_ctrls.rdPerTurnAround::total             3                       # Reads before turning the bus around for writes
system.mem_ctrls.wrPerTurnAround::samples            3                       # Writes before turning the bus around for reads
system.mem_ctrls.wrPerTurnAround::mean             18                       # Writes before turning the bus around for reads
system.mem_ctrls.wrPerTurnAround::gmean     18.000000                       # Writes before turning the bus around for reads
system.mem_ctrls.wrPerTurnAround::18                3    100.00%    100.00% # Writes before turning the bus around for reads
system.mem_ctrls.wrPerTurnAround::total             3                       # Writes before turning the bus around for reads
system.mem_ctrls.bytesReadWrQ                     704                       # Total number of bytes read from write queue
system.mem_ctrls.bytesReadSys                   37184                       # Total read bytes from the system interface side
system.mem_ctrls.bytesWrittenSys                 4800                       # Total written bytes from the system interface side
system.mem_ctrls.avgRdBWSys                      0.23                       # Average system read bandwidth in MiByte/s
system.mem_ctrls.avgWrBWSys                      0.03                       # Average system write bandwidth in MiByte/s
system.mem_ctrls.totGap                  163260000000                       # Total gap between requests
system.mem_ctrls.avgGap                  248871951.22                       # Average gap between requests
system.mem_ctrls.requestorReadBytes::.cpu.inst        25984                       # Per-requestor bytes read from memory
system.mem_ctrls.requestorReadBytes::.cpu.data        10496                       # Per-requestor bytes read from memory
system.mem_ctrls.requestorWriteBytes::.writebacks         3456                       # Per-requestor bytes write to memory
system.mem_ctrls.requestorReadRate::.cpu.inst 158962.437293527473                       # Per-requestor bytes read from memory rate (Bytes/sec)
system.mem_ctrls.requestorReadRate::.cpu.data 64211.427872262328                       # Per-requestor bytes read from memory rate (Bytes/sec)
system.mem_ctrls.requestorWriteRate::.writebacks 21142.787226232718                       # Per-requestor bytes write to memory rate (Bytes/sec)
system.mem_ctrls.requestorReadAccesses::.cpu.inst          416                       # Per-requestor read serviced memory accesses
system.mem_ctrls.requestorReadAccesses::.cpu.data          165                       # Per-requestor read serviced memory accesses
system.mem_ctrls.requestorWriteAccesses::.writebacks           75                       # Per-requestor write serviced memory accesses
system.mem_ctrls.requestorReadTotalLat::.cpu.inst     15052750                       # Per-requestor read total memory access latency
system.mem_ctrls.requestorReadTotalLat::.cpu.data      6228250                       # Per-requestor read total memory access latency
system.mem_ctrls.requestorWriteTotalLat::.writebacks 1320514061500                       # Per-requestor write total memory access latency
system.mem_ctrls.requestorReadAvgLat::.cpu.inst     36184.50                       # Per-requestor read average memory access latency
system.mem_ctrls.requestorReadAvgLat::.cpu.data     37746.97                       # Per-requestor read average memory access latency
system.mem_ctrls.requestorWriteAvgLat::.writebacks 17606854153.33                       # Per-requestor write average memory access latency
system.mem_ctrls.dram.bytes_read::.cpu.inst        26624                       # Number of bytes read from this memory
system.mem_ctrls.dram.bytes_read::.cpu.data        10560                       # Number of bytes read from this memory
system.mem_ctrls.dram.bytes_read::total         37184                       # Number of bytes read from this memory
system.mem_ctrls.dram.bytes_inst_read::.cpu.inst        26624                       # Number of instructions bytes read from this memory
system.mem_ctrls.dram.bytes_inst_read::total        26624                       # Number of instructions bytes read from this memory
system.mem_ctrls.dram.num_reads::.cpu.inst          416                       # Number of read requests responded to by this memory
system.mem_ctrls.dram.num_reads::.cpu.data          165                       # Number of read requests responded to by this memory
system.mem_ctrls.dram.num_reads::total            581                       # Number of read requests responded to by this memory
system.mem_ctrls.dram.bw_read::.cpu.inst       162878                       # Total read bandwidth from this memory (bytes/s)
system.mem_ctrls.dram.bw_read::.cpu.data        64603                       # Total read bandwidth from this memory (bytes/s)
system.mem_ctrls.dram.bw_read::total           227481                       # Total read bandwidth from this memory (bytes/s)
system.mem_ctrls.dram.bw_inst_read::.cpu.inst       162878                       # Instruction read bandwidth from this memory (bytes/s)
system.mem_ctrls.dram.bw_inst_read::total       162878                       # Instruction read bandwidth from this memory (bytes/s)
system.mem_ctrls.dram.bw_total::.cpu.inst       162878                       # Total bandwidth to/from this memory (bytes/s)
system.mem_ctrls.dram.bw_total::.cpu.data        64603                       # Total bandwidth to/from this memory (bytes/s)
system.mem_ctrls.dram.bw_total::total          227481                       # Total bandwidth to/from this memory (bytes/s)
system.mem_ctrls.dram.readBursts                  570                       # Number of DRAM read bursts
system.mem_ctrls.dram.writeBursts                  54                       # Number of DRAM write bursts
system.mem_ctrls.dram.perBankRdBursts::0           39                       # Per bank write bursts
system.mem_ctrls.dram.perBankRdBursts::1            4                       # Per bank write bursts
system.mem_ctrls.dram.perBankRdBursts::2           21                       # Per bank write bursts
system.mem_ctrls.dram.perBankRdBursts::3           41                       # Per bank write bursts
system.mem_ctrls.dram.perBankRdBursts::4           42                       # Per bank write bursts
system.mem_ctrls.dram.perBankRdBursts::5           59                       # Per bank write bursts
system.mem_ctrls.dram.perBankRdBursts::6           35                       # Per bank write bursts
system.mem_ctrls.dram.perBankRdBursts::7          107                       # Per bank write bursts
system.mem_ctrls.dram.perBankRdBursts::8           59                       # Per bank write bursts
system.mem_ctrls.dram.perBankRdBursts::9           76                       # Per bank write bursts
system.mem_ctrls.dram.perBankRdBursts::10            5                       # Per bank write bursts
system.mem_ctrls.dram.perBankRdBursts::11           11                       # Per bank write bursts
system.mem_ctrls.dram.perBankRdBursts::12            4                       # Per bank write bursts
system.mem_ctrls.dram.perBankRdBursts::13           18                       # Per bank write bursts
system.mem_ctrls.dram.perBankRdBursts::14           12                       # Per bank write bursts
system.mem_ctrls.dram.perBankRdBursts::15           37                       # Per bank write bursts
system.mem_ctrls.dram.perBankWrBursts::0            7                       # Per bank write bursts
system.mem_ctrls.dram.perBankWrBursts::1            0                       # Per bank write bursts
system.mem_ctrls.dram.perBankWrBursts::2            1                       # Per bank write bursts
system.mem_ctrls.dram.perBankWrBursts::3            0                       # Per bank write bursts
system.mem_ctrls.dram.perBankWrBursts::4            2                       # Per bank write bursts
system.mem_ctrls.dram.perBankWrBursts::5           12                       # Per bank write bursts
system.mem_ctrls.dram.perBankWrBursts::6            8                       # Per bank write bursts
system.mem_ctrls.dram.perBankWrBursts::7           11                       # Per bank write bursts
system.mem_ctrls.dram.perBankWrBursts::8            3                       # Per bank write bursts
system.mem_ctrls.dram.perBankWrBursts::9            9                       # Per bank write bursts
system.mem_ctrls.dram.perBankWrBursts::10            0                       # Per bank write bursts
system.mem_ctrls.dram.perBankWrBursts::11            1                       # Per bank write bursts
system.mem_ctrls.dram.perBankWrBursts::12            0                       # Per bank write bursts
system.mem_ctrls.dram.perBankWrBursts::13            0                       # Per bank write bursts
system.mem_ctrls.dram.perBankWrBursts::14            0                       # Per bank write bursts
system.mem_ctrls.dram.perBankWrBursts::15            0                       # Per bank write bursts
system.mem_ctrls.dram.totQLat                10593500                       # Total ticks spent queuing
system.mem_ctrls.dram.totBusLat               2850000                       # Total ticks spent in databus transfers
system.mem_ctrls.dram.totMemAccLat           21281000                       # Total ticks spent from burst creation until serviced by the DRAM
system.mem_ctrls.dram.avgQLat                18585.09                       # Average queueing delay per DRAM burst
system.mem_ctrls.dram.avgBusLat               5000.00                       # Average bus latency per DRAM burst
system.mem_ctrls.dram.avgMemAccLat           37335.09                       # Average memory access latency per DRAM burst
system.mem_ctrls.dram.readRowHits                   2                       # Number of row buffer hits during reads
system.mem_ctrls.dram.writeRowHits                 41                       # Number of row buffer hits during writes
system.mem_ctrls.dram.readRowHitRate             0.35                       # Row buffer hit rate for reads
system.mem_ctrls.dram.writeRowHitRate           75.93                       # Row buffer hit rate for writes
system.mem_ctrls.dram.bytesPerActivate::samples          581                       # Bytes accessed per row activation
system.mem_ctrls.dram.bytesPerActivate::mean    68.736661                       # Bytes accessed per row activation
system.mem_ctrls.dram.bytesPerActivate::gmean    65.784693                       # Bytes accessed per row activation
system.mem_ctrls.dram.bytesPerActivate::stdev    40.110638                       # Bytes accessed per row activation
system.mem_ctrls.dram.bytesPerActivate::64-127          570     98.11%     98.11% # Bytes accessed per row activation
system.mem_ctrls.dram.bytesPerActivate::128-191            3      0.52%     98.62% # Bytes accessed per row activation
system.mem_ctrls.dram.bytesPerActivate::192-255            1      0.17%     98.80% # Bytes accessed per row activation
system.mem_ctrls.dram.bytesPerActivate::256-319            1      0.17%     98.97% # Bytes accessed per row activation
system.mem_ctrls.dram.bytesPerActivate::320-383            1      0.17%     99.14% # Bytes accessed per row activation
system.mem_ctrls.dram.bytesPerActivate::384-447            2      0.34%     99.48% # Bytes accessed per row activation
system.mem_ctrls.dram.bytesPerActivate::448-511            1      0.17%     99.66% # Bytes accessed per row activation
system.mem_ctrls.dram.bytesPerActivate::512-575            1      0.17%     99.83% # Bytes accessed per row activation
system.mem_ctrls.dram.bytesPerActivate::576-639            1      0.17%    100.00% # Bytes accessed per row activation
system.mem_ctrls.dram.bytesPerActivate::total          581                       # Bytes accessed per row activation
system.mem_ctrls.dram.bytesRead                 36480                       # Total number of bytes read from DRAM
system.mem_ctrls.dram.bytesWritten               3456                       # Total number of bytes written to DRAM
system.mem_ctrls.dram.avgRdBW                0.223174                       # Average DRAM read bandwidth in MiBytes/s
system.mem_ctrls.dram.avgWrBW                0.021143                       # Average DRAM write bandwidth in MiBytes/s
system.mem_ctrls.dram.peakBW                 12800.00                       # Theoretical peak bandwidth in MiByte/s
system.mem_ctrls.dram.busUtil                    0.00                       # Data bus utilization in percentage
system.mem_ctrls.dram.busUtilRead                0.00                       # Data bus utilization in percentage for reads
system.mem_ctrls.dram.busUtilWrite               0.00                       # Data bus utilization in percentage for writes
system.mem_ctrls.dram.pageHitRate                6.89                       # Row buffer hit rate, read and write combined
system.mem_ctrls.dram.power_state.pwrStateResidencyTicks::UNDEFINED 163460000000                       # Cumulative time (in ticks) in various power states
system.mem_ctrls.dram.rank0.actEnergy         2548980                       # Energy for activate commands per rank (pJ)
system.mem_ctrls.dram.rank0.preEnergy         1354815                       # Energy for precharge commands per rank (pJ)
system.mem_ctrls.dram.rank0.readEnergy        2484720                       # Energy for read commands per rank (pJ)
system.mem_ctrls.dram.rank0.writeEnergy        214020                       # Energy for write commands per rank (pJ)
system.mem_ctrls.dram.rank0.refreshEnergy 12903137520.000002                       # Energy for refresh commands per rank (pJ)
system.mem_ctrls.dram.rank0.actBackEnergy   2964325470                       # Energy for active background per rank (pJ)
system.mem_ctrls.dram.rank0.preBackEnergy  60272365920                       # Energy for precharge background per rank (pJ)
system.mem_ctrls.dram.rank0.actPowerDownEnergy            0                       # Energy for active power-down per rank (pJ)
system.mem_ctrls.dram.rank0.prePowerDownEnergy            0                       # Energy for precharge power-down per rank (pJ)
system.mem_ctrls.dram.rank0.selfRefreshEnergy            0                       # Energy for self refresh per rank (pJ)
system.mem_ctrls.dram.rank0.totalEnergy   76146431445                       # Total energy per rank (pJ)
system.mem_ctrls.dram.rank0.averagePower   465.841377                       # Core power per rank (mW)
system.mem_ctrls.dram.rank0.totalIdleTime            0                       # Total Idle time Per DRAM Rank
system.mem_ctrls.dram.rank0.pwrStateTime::IDLE 156665847500                       # Time in different power states
system.mem_ctrls.dram.rank0.pwrStateTime::REF   5458180000                       # Time in different power states
system.mem_ctrls.dram.rank0.pwrStateTime::SREF            0                       # Time in different power states
system.mem_ctrls.dram.rank0.pwrStateTime::PRE_PDN            0                       # Time in different power states
system.mem_ctrls.dram.rank0.pwrStateTime::ACT   1335972500                       # Time in different power states
system.mem_ctrls.dram.rank0.pwrStateTime::ACT_PDN            0                       # Time in different power states
system.mem_ctrls.dram.rank1.actEnergy         1599360                       # Energy for activate commands per rank (pJ)
system.mem_ctrls.dram.rank1.preEnergy          850080                       # Energy for precharge commands per rank (pJ)
system.mem_ctrls.dram.rank1.readEnergy        1585080                       # Energy for read commands per rank (pJ)
system.mem_ctrls.dram.rank1.writeEnergy         67860                       # Energy for write commands per rank (pJ)
system.mem_ctrls.dram.rank1.refreshEnergy 12903137520.000002                       # Energy for refresh commands per rank (pJ)
system.mem_ctrls.dram.rank1.actBackEnergy   2735789670                       # Energy for active background per rank (pJ)
system.mem_ctrls.dram.rank1.preBackEnergy  60464817120                       # Energy for precharge background per rank (pJ)
system.mem_ctrls.dram.rank1.actPowerDownEnergy            0                       # Energy for active power-down per rank (pJ)
system.mem_ctrls.dram.rank1.prePowerDownEnergy            0                       # Energy for precharge power-down per rank (pJ)
system.mem_ctrls.dram.rank1.selfRefreshEnergy            0                       # Energy for self refresh per rank (pJ)
system.mem_ctrls.dram.rank1.totalEnergy   76107846690                       # Total energy per rank (pJ)
system.mem_ctrls.dram.rank1.averagePower   465.605327                       # Core power per rank (mW)
system.mem_ctrls.dram.rank1.totalIdleTime            0                       # Total Idle time Per DRAM Rank
system.mem_ctrls.dram.rank1.pwrStateTime::IDLE 157168754750                       # Time in different power states
system.mem_ctrls.dram.rank1.pwrStateTime::REF   5458180000                       # Time in different power states
system.mem_ctrls.dram.rank1.pwrStateTime::SREF            0                       # Time in different power states
system.mem_ctrls.dram.rank1.pwrStateTime::PRE_PDN            0                       # Time in different power states
system.mem_ctrls.dram.rank1.pwrStateTime::ACT    833065250                       # Time in different power states
system.mem_ctrls.dram.rank1.pwrStateTime::ACT_PDN            0                       # Time in different power states
system.mem_ctrls.power_state.pwrStateResidencyTicks::UNDEFINED 163460000000                       # Cumulative time (in ticks) in various power states
system.membus.trans_dist::ReadResp                511                       # Transaction distribution
system.membus.trans_dist::WritebackClean           77                       # Transaction distribution
system.membus.trans_dist::ReadExReq                70                       # Transaction distribution
system.membus.trans_dist::ReadExResp               70                       # Transaction distribution
system.membus.trans_dist::ReadCleanReq            416                       # Transaction distribution
system.membus.trans_dist::ReadSharedReq            95                       # Transaction distribution
system.membus.pkt_count_system.cpu.icache.mem_side_port::system.mem_ctrls.port          909                       # Packet count per connected requestor and responder (bytes)
system.membus.pkt_count_system.cpu.dcache.mem_side_port::system.mem_ctrls.port          330                       # Packet count per connected requestor and responder (bytes)
system.membus.pkt_count::total                   1239                       # Packet count per connected requestor and responder (bytes)
system.membus.pkt_size_system.cpu.icache.mem_side_port::system.mem_ctrls.port        31552                       # Cumulative packet size per connected requestor and responder (bytes)
system.membus.pkt_size_system.cpu.dcache.mem_side_port::system.mem_ctrls.port        10560                       # Cumulative packet size per connected requestor and responder (bytes)
system.membus.pkt_size::total                   42112                       # Cumulative packet size per connected requestor and responder (bytes)
system.membus.snoops                                0                       # Total snoops (count)
system.membus.snoopTraffic                          0                       # Total snoop traffic (bytes)
system.membus.snoop_fanout::samples               581                       # Request fanout histogram
system.membus.snoop_fanout::mean             0.034423                       # Request fanout histogram
system.membus.snoop_fanout::stdev            0.182471                       # Request fanout histogram
system.membus.snoop_fanout::underflows              0      0.00%      0.00% # Request fanout histogram
system.membus.snoop_fanout::0                     561     96.56%     96.56% # Request fanout histogram
system.membus.snoop_fanout::1                      20      3.44%    100.00% # Request fanout histogram
system.membus.snoop_fanout::2                       0      0.00%    100.00% # Request fanout histogram
system.membus.snoop_fanout::overflows               0      0.00%    100.00% # Request fanout histogram
system.membus.snoop_fanout::min_value               0                       # Request fanout histogram
system.membus.snoop_fanout::max_value               1                       # Request fanout histogram
system.membus.snoop_fanout::total                 581                       # Request fanout histogram
system.membus.power_state.pwrStateResidencyTicks::UNDEFINED 163460000000                       # Cumulative time (in ticks) in various power states
system.membus.reqLayer0.occupancy              966000                       # Layer occupancy (ticks)
system.membus.reqLayer0.utilization               0.0                       # Layer utilization (%)
system.membus.respLayer1.occupancy            2282250                       # Layer occupancy (ticks)
system.membus.respLayer1.utilization              0.0                       # Layer utilization (%)
system.membus.respLayer2.occupancy             905750                       # Layer occupancy (ticks)
system.membus.respLayer2.utilization              0.0                       # Layer utilization (%)
system.voltage_domain.voltage                       1                       # Voltage in Volts

---------- End Simulation Statistics   ----------
