
---------- Begin Simulation Statistics ----------
final_tick                               174773455500                       # Number of ticks from beginning of simulation (restored from checkpoints and never reset)
host_inst_rate                                 147535                       # Simulator instruction rate (inst/s)
host_mem_usage                                 686932                       # Number of bytes of host memory used
host_op_rate                                   147540                       # Simulator op (including micro ops) rate (op/s)
host_seconds                                   677.81                       # Real time elapsed on the host
host_tick_rate                              257852079                       # Simulator tick rate (ticks/s)
sim_freq                                 1000000000000                       # Frequency of simulated ticks
sim_insts                                   100000000                       # Number of instructions simulated
sim_ops                                     100003660                       # Number of ops (including micro ops) simulated
sim_seconds                                  0.174773                       # Number of seconds simulated
sim_ticks                                174773455500                       # Number of ticks simulated
system.cpu.committedInsts                   100000000                       # Number of instructions committed
system.cpu.committedOps                     100003660                       # Number of ops (including micro ops) committed
system.cpu.cpi                               3.495469                       # CPI: cycles per instruction
system.cpu.discardedOps                         21187                       # Number of ops (including micro ops) which were discarded before commit
system.cpu.idleCycles                       232195190                       # Total number of cycles that the object has spent stopped
system.cpu.ipc                               0.286085                       # IPC: instructions per cycle
system.cpu.numCycles                        349546911                       # number of cpu cycles simulated
system.cpu.numFetchSuspends                         0                       # Number of times Execute suspended instruction fetching
system.cpu.numWorkItemsCompleted                    0                       # number of work items this cpu completed
system.cpu.numWorkItemsStarted                      0                       # number of work items this cpu started
system.cpu.op_class_0::No_OpClass                   0      0.00%      0.00% # Class of committed instruction
system.cpu.op_class_0::IntAlu                49995423     49.99%     49.99% # Class of committed instruction
system.cpu.op_class_0::IntMult                     88      0.00%     49.99% # Class of committed instruction
system.cpu.op_class_0::IntDiv                       0      0.00%     49.99% # Class of committed instruction
system.cpu.op_class_0::FloatAdd                     0      0.00%     49.99% # Class of committed instruction
system.cpu.op_class_0::FloatCmp                     0      0.00%     49.99% # Class of committed instruction
system.cpu.op_class_0::FloatCvt                     0      0.00%     49.99% # Class of committed instruction
system.cpu.op_class_0::FloatMult                    0      0.00%     49.99% # Class of committed instruction
system.cpu.op_class_0::FloatMultAcc                 0      0.00%     49.99% # Class of committed instruction
system.cpu.op_class_0::FloatDiv                     0      0.00%     49.99% # Class of committed instruction
system.cpu.op_class_0::FloatMisc                    0      0.00%     49.99% # Class of committed instruction
system.cpu.op_class_0::FloatSqrt                    0      0.00%     49.99% # Class of committed instruction
system.cpu.op_class_0::SimdAdd                      0      0.00%     49.99% # Class of committed instruction
system.cpu.op_class_0::SimdAddAcc                   0      0.00%     49.99% # Class of committed instruction
system.cpu.op_class_0::SimdAlu                      0      0.00%     49.99% # Class of committed instruction
system.cpu.op_class_0::SimdCmp                      0      0.00%     49.99% # Class of committed instruction
system.cpu.op_class_0::SimdCvt                      0      0.00%     49.99% # Class of committed instruction
system.cpu.op_class_0::SimdMisc                     0      0.00%     49.99% # Class of committed instruction
system.cpu.op_class_0::SimdMult                     0      0.00%     49.99% # Class of committed instruction
system.cpu.op_class_0::SimdMultAcc                  0      0.00%     49.99% # Class of committed instruction
system.cpu.op_class_0::SimdShift                    0      0.00%     49.99% # Class of committed instruction
system.cpu.op_class_0::SimdShiftAcc                 0      0.00%     49.99% # Class of committed instruction
system.cpu.op_class_0::SimdDiv                      0      0.00%     49.99% # Class of committed instruction
system.cpu.op_class_0::SimdSqrt                     0      0.00%     49.99% # Class of committed instruction
system.cpu.op_class_0::SimdFloatAdd                 0      0.00%     49.99% # Class of committed instruction
system.cpu.op_class_0::SimdFloatAlu                 0      0.00%     49.99% # Class of committed instruction
system.cpu.op_class_0::SimdFloatCmp                 2      0.00%     49.99% # Class of committed instruction
system.cpu.op_class_0::SimdFloatCvt                 0      0.00%     49.99% # Class of committed instruction
system.cpu.op_class_0::SimdFloatDiv                 0      0.00%     49.99% # Class of committed instruction
system.cpu.op_class_0::SimdFloatMisc               22      0.00%     49.99% # Class of committed instruction
system.cpu.op_class_0::SimdFloatMult                0      0.00%     49.99% # Class of committed instruction
system.cpu.op_class_0::SimdFloatMultAcc             0      0.00%     49.99% # Class of committed instruction
system.cpu.op_class_0::SimdFloatSqrt                0      0.00%     49.99% # Class of committed instruction
system.cpu.op_class_0::SimdReduceAdd                0      0.00%     49.99% # Class of committed instruction
system.cpu.op_class_0::SimdReduceAlu                0      0.00%     49.99% # Class of committed instruction
system.cpu.op_class_0::SimdReduceCmp                0      0.00%     49.99% # Class of committed instruction
system.cpu.op_class_0::SimdFloatReduceAdd            0      0.00%     49.99% # Class of committed instruction
system.cpu.op_class_0::SimdFloatReduceCmp            0      0.00%     49.99% # Class of committed instruction
system.cpu.op_class_0::SimdAes                      0      0.00%     49.99% # Class of committed instruction
system.cpu.op_class_0::SimdAesMix                   0      0.00%     49.99% # Class of committed instruction
system.cpu.op_class_0::SimdSha1Hash                 0      0.00%     49.99% # Class of committed instruction
system.cpu.op_class_0::SimdSha1Hash2                0      0.00%     49.99% # Class of committed instruction
system.cpu.op_class_0::SimdSha256Hash               0      0.00%     49.99% # Class of committed instruction
system.cpu.op_class_0::SimdSha256Hash2              0      0.00%     49.99% # Class of committed instruction
system.cpu.op_class_0::SimdShaSigma2                0      0.00%     49.99% # Class of committed instruction
system.cpu.op_class_0::SimdShaSigma3                0      0.00%     49.99% # Class of committed instruction
system.cpu.op_class_0::SimdPredAlu                  0      0.00%     49.99% # Class of committed instruction
system.cpu.op_class_0::MemRead               36892258     36.89%     86.88% # Class of committed instruction
system.cpu.op_class_0::MemWrite              13115867     13.12%    100.00% # Class of committed instruction
system.cpu.op_class_0::FloatMemRead                 0      0.00%    100.00% # Class of committed instruction
system.cpu.op_class_0::FloatMemWrite                0      0.00%    100.00% # Class of committed instruction
system.cpu.op_class_0::IprAccess                    0      0.00%    100.00% # Class of committed instruction
system.cpu.op_class_0::InstPrefetch                 0      0.00%    100.00% # Class of committed instruction
system.cpu.op_class_0::total                100003660                       # Class of committed instruction
system.cpu.tickCycles                       117351721                       # Number of cycles that the object actually ticked
system.cpu.workload.numSyscalls                    19                       # Number of system calls
system.membus.snoop_filter.hit_multi_requests            0                       # Number of requests hitting in the snoop filter with multiple (>1) holders of the requested data.
system.membus.snoop_filter.hit_multi_snoops            0                       # Number of snoops hitting in the snoop filter with multiple (>1) holders of the requested data.
system.membus.snoop_filter.hit_single_requests      1455088                       # Number of requests hitting in the snoop filter with a single holder of the requested data.
system.membus.snoop_filter.hit_single_snoops            0                       # Number of snoops hitting in the snoop filter with a single holder of the requested data.
system.membus.snoop_filter.tot_requests       2943198                       # Total number of requests made to the snoop filter.
system.membus.snoop_filter.tot_snoops               0                       # Total number of snoops made to the snoop filter.
system.tol2bus.snoop_filter.hit_multi_requests           32                       # Number of requests hitting in the snoop filter with multiple (>1) holders of the requested data.
system.tol2bus.snoop_filter.hit_multi_snoops            1                       # Number of snoops hitting in the snoop filter with multiple (>1) holders of the requested data.
system.tol2bus.snoop_filter.hit_single_requests      1486991                       # Number of requests hitting in the snoop filter with a single holder of the requested data.
system.tol2bus.snoop_filter.hit_single_snoops          253                       # Number of snoops hitting in the snoop filter with a single holder of the requested data.
system.tol2bus.snoop_filter.tot_requests      2975258                       # Total number of requests made to the snoop filter.
system.tol2bus.snoop_filter.tot_snoops            254                       # Total number of snoops made to the snoop filter.
system.membus.trans_dist::ReadResp                612                       # Transaction distribution
system.membus.trans_dist::WritebackDirty      1454747                       # Transaction distribution
system.membus.trans_dist::CleanEvict              341                       # Transaction distribution
system.membus.trans_dist::ReadExReq           1487498                       # Transaction distribution
system.membus.trans_dist::ReadExResp          1487498                       # Transaction distribution
system.membus.trans_dist::ReadSharedReq           612                       # Transaction distribution
system.membus.pkt_count_system.l2.mem_side_port::system.mem_ctrls.port      4431308                       # Packet count per connected requestor and responder (bytes)
system.membus.pkt_count::total                4431308                       # Packet count per connected requestor and responder (bytes)
system.membus.pkt_size_system.l2.mem_side_port::system.mem_ctrls.port    188342848                       # Cumulative packet size per connected requestor and responder (bytes)
system.membus.pkt_size::total               188342848                       # Cumulative packet size per connected requestor and responder (bytes)
system.membus.snoops                                0                       # Total snoops (count)
system.membus.snoopTraffic                          0                       # Total snoop traffic (bytes)
system.membus.snoop_fanout::samples           1488110                       # Request fanout histogram
system.membus.snoop_fanout::mean                    0                       # Request fanout histogram
system.membus.snoop_fanout::stdev                   0                       # Request fanout histogram
system.membus.snoop_fanout::underflows              0      0.00%      0.00% # Request fanout histogram
system.membus.snoop_fanout::0                 1488110    100.00%    100.00% # Request fanout histogram
system.membus.snoop_fanout::1                       0      0.00%    100.00% # Request fanout histogram
system.membus.snoop_fanout::overflows               0      0.00%    100.00% # Request fanout histogram
system.membus.snoop_fanout::min_value               0                       # Request fanout histogram
system.membus.snoop_fanout::max_value               0                       # Request fanout histogram
system.membus.snoop_fanout::total             1488110                       # Request fanout histogram
system.membus.reqLayer0.occupancy          9352607500                       # Layer occupancy (ticks)
system.membus.reqLayer0.utilization               5.4                       # Layer utilization (%)
system.membus.respLayer1.occupancy         7840193000                       # Layer occupancy (ticks)
system.membus.respLayer1.utilization              4.5                       # Layer utilization (%)
system.membus.power_state.pwrStateResidencyTicks::UNDEFINED 174773455500                       # Cumulative time (in ticks) in various power states
system.tol2bus.trans_dist::ReadResp               769                       # Transaction distribution
system.tol2bus.trans_dist::WritebackDirty      2941240                       # Transaction distribution
system.tol2bus.trans_dist::WritebackClean          386                       # Transaction distribution
system.tol2bus.trans_dist::CleanEvict             706                       # Transaction distribution
system.tol2bus.trans_dist::ReadExReq          1487499                       # Transaction distribution
system.tol2bus.trans_dist::ReadExResp         1487498                       # Transaction distribution
system.tol2bus.trans_dist::ReadCleanReq           639                       # Transaction distribution
system.tol2bus.trans_dist::ReadSharedReq          130                       # Transaction distribution
system.tol2bus.pkt_count_system.cpu.icache.mem_side_port::system.l2.cpu_side_port         1664                       # Packet count per connected requestor and responder (bytes)
system.tol2bus.pkt_count_system.cpu.dcache.mem_side_port::system.l2.cpu_side_port      4461861                       # Packet count per connected requestor and responder (bytes)
system.tol2bus.pkt_count::total               4463525                       # Packet count per connected requestor and responder (bytes)
system.tol2bus.pkt_size_system.cpu.icache.mem_side_port::system.l2.cpu_side_port        65600                       # Cumulative packet size per connected requestor and responder (bytes)
system.tol2bus.pkt_size_system.cpu.dcache.mem_side_port::system.l2.cpu_side_port    190343744                       # Cumulative packet size per connected requestor and responder (bytes)
system.tol2bus.pkt_size::total              190409344                       # Cumulative packet size per connected requestor and responder (bytes)
system.tol2bus.snoops                         1455342                       # Total snoops (count)
system.tol2bus.snoopTraffic                  93103808                       # Total snoop traffic (bytes)
system.tol2bus.snoop_fanout::samples          2943610                       # Request fanout histogram
system.tol2bus.snoop_fanout::mean            0.000098                       # Request fanout histogram
system.tol2bus.snoop_fanout::stdev           0.009925                       # Request fanout histogram
system.tol2bus.snoop_fanout::underflows             0      0.00%      0.00% # Request fanout histogram
system.tol2bus.snoop_fanout::0                2943323     99.99%     99.99% # Request fanout histogram
system.tol2bus.snoop_fanout::1                    286      0.01%    100.00% # Request fanout histogram
system.tol2bus.snoop_fanout::2                      1      0.00%    100.00% # Request fanout histogram
system.tol2bus.snoop_fanout::overflows              0      0.00%    100.00% # Request fanout histogram
system.tol2bus.snoop_fanout::min_value              0                       # Request fanout histogram
system.tol2bus.snoop_fanout::max_value              2                       # Request fanout histogram
system.tol2bus.snoop_fanout::total            2943610                       # Request fanout histogram
system.tol2bus.reqLayer0.occupancy         2974508000                       # Layer occupancy (ticks)
system.tol2bus.reqLayer0.utilization              1.7                       # Layer utilization (%)
system.tol2bus.respLayer1.occupancy        2231443497                       # Layer occupancy (ticks)
system.tol2bus.respLayer1.utilization             1.3                       # Layer utilization (%)
system.tol2bus.respLayer0.occupancy            958999                       # Layer occupancy (ticks)
system.tol2bus.respLayer0.utilization             0.0                       # Layer utilization (%)
system.tol2bus.power_state.pwrStateResidencyTicks::UNDEFINED 174773455500                       # Cumulative time (in ticks) in various power states
system.voltage_domain.voltage                       1                       # Voltage in Volts
system.clk_domain.clock                          1000                       # Clock period in ticks
system.l2.demand_hits::.cpu.inst                  140                       # number of demand (read+write) hits
system.l2.demand_hits::.cpu.data                   13                       # number of demand (read+write) hits
system.l2.demand_hits::total                      153                       # number of demand (read+write) hits
system.l2.overall_hits::.cpu.inst                 140                       # number of overall hits
system.l2.overall_hits::.cpu.data                  13                       # number of overall hits
system.l2.overall_hits::total                     153                       # number of overall hits
system.l2.demand_misses::.cpu.inst                499                       # number of demand (read+write) misses
system.l2.demand_misses::.cpu.data            1487616                       # number of demand (read+write) misses
system.l2.demand_misses::total                1488115                       # number of demand (read+write) misses
system.l2.overall_misses::.cpu.inst               499                       # number of overall misses
system.l2.overall_misses::.cpu.data           1487616                       # number of overall misses
system.l2.overall_misses::total               1488115                       # number of overall misses
system.l2.demand_miss_latency::.cpu.inst     37680500                       # number of demand (read+write) miss cycles
system.l2.demand_miss_latency::.cpu.data 118864965000                       # number of demand (read+write) miss cycles
system.l2.demand_miss_latency::total     118902645500                       # number of demand (read+write) miss cycles
system.l2.overall_miss_latency::.cpu.inst     37680500                       # number of overall miss cycles
system.l2.overall_miss_latency::.cpu.data 118864965000                       # number of overall miss cycles
system.l2.overall_miss_latency::total    118902645500                       # number of overall miss cycles
system.l2.demand_accesses::.cpu.inst              639                       # number of demand (read+write) accesses
system.l2.demand_accesses::.cpu.data          1487629                       # number of demand (read+write) accesses
system.l2.demand_accesses::total              1488268                       # number of demand (read+write) accesses
system.l2.overall_accesses::.cpu.inst             639                       # number of overall (read+write) accesses
system.l2.overall_accesses::.cpu.data         1487629                       # number of overall (read+write) accesses
system.l2.overall_accesses::total             1488268                       # number of overall (read+write) accesses
system.l2.demand_miss_rate::.cpu.inst        0.780908                       # miss rate for demand accesses
system.l2.demand_miss_rate::.cpu.data        0.999991                       # miss rate for demand accesses
system.l2.demand_miss_rate::total            0.999897                       # miss rate for demand accesses
system.l2.overall_miss_rate::.cpu.inst       0.780908                       # miss rate for overall accesses
system.l2.overall_miss_rate::.cpu.data       0.999991                       # miss rate for overall accesses
system.l2.overall_miss_rate::total           0.999897                       # miss rate for overall accesses
system.l2.demand_avg_miss_latency::.cpu.inst 75512.024048                       # average overall miss latency
system.l2.demand_avg_miss_latency::.cpu.data 79902.989078                       # average overall miss latency
system.l2.demand_avg_miss_latency::total 79901.516684                       # average overall miss latency
system.l2.overall_avg_miss_latency::.cpu.inst 75512.024048                       # average overall miss latency
system.l2.overall_avg_miss_latency::.cpu.data 79902.989078                       # average overall miss latency
system.l2.overall_avg_miss_latency::total 79901.516684                       # average overall miss latency
system.l2.blocked_cycles::no_mshrs                  0                       # number of cycles access was blocked
system.l2.blocked_cycles::no_targets                0                       # number of cycles access was blocked
system.l2.blocked::no_mshrs                         0                       # number of cycles access was blocked
system.l2.blocked::no_targets                       0                       # number of cycles access was blocked
system.l2.avg_blocked_cycles::no_mshrs            nan                       # average number of cycles each access was blocked
system.l2.avg_blocked_cycles::no_targets          nan                       # average number of cycles each access was blocked
system.l2.writebacks::.writebacks             1454747                       # number of writebacks
system.l2.writebacks::total                   1454747                       # number of writebacks
system.l2.demand_mshr_hits::.cpu.inst               1                       # number of demand (read+write) MSHR hits
system.l2.demand_mshr_hits::.cpu.data               3                       # number of demand (read+write) MSHR hits
system.l2.demand_mshr_hits::total                   4                       # number of demand (read+write) MSHR hits
system.l2.overall_mshr_hits::.cpu.inst              1                       # number of overall MSHR hits
system.l2.overall_mshr_hits::.cpu.data              3                       # number of overall MSHR hits
system.l2.overall_mshr_hits::total                  4                       # number of overall MSHR hits
system.l2.demand_mshr_misses::.cpu.inst           498                       # number of demand (read+write) MSHR misses
system.l2.demand_mshr_misses::.cpu.data       1487613                       # number of demand (read+write) MSHR misses
system.l2.demand_mshr_misses::total           1488111                       # number of demand (read+write) MSHR misses
system.l2.overall_mshr_misses::.cpu.inst          498                       # number of overall MSHR misses
system.l2.overall_mshr_misses::.cpu.data      1487613                       # number of overall MSHR misses
system.l2.overall_mshr_misses::total          1488111                       # number of overall MSHR misses
system.l2.demand_mshr_miss_latency::.cpu.inst     32632000                       # number of demand (read+write) MSHR miss cycles
system.l2.demand_mshr_miss_latency::.cpu.data 103988643500                       # number of demand (read+write) MSHR miss cycles
system.l2.demand_mshr_miss_latency::total 104021275500                       # number of demand (read+write) MSHR miss cycles
system.l2.overall_mshr_miss_latency::.cpu.inst     32632000                       # number of overall MSHR miss cycles
system.l2.overall_mshr_miss_latency::.cpu.data 103988643500                       # number of overall MSHR miss cycles
system.l2.overall_mshr_miss_latency::total 104021275500                       # number of overall MSHR miss cycles
system.l2.demand_mshr_miss_rate::.cpu.inst     0.779343                       # mshr miss rate for demand accesses
system.l2.demand_mshr_miss_rate::.cpu.data     0.999989                       # mshr miss rate for demand accesses
system.l2.demand_mshr_miss_rate::total       0.999895                       # mshr miss rate for demand accesses
system.l2.overall_mshr_miss_rate::.cpu.inst     0.779343                       # mshr miss rate for overall accesses
system.l2.overall_mshr_miss_rate::.cpu.data     0.999989                       # mshr miss rate for overall accesses
system.l2.overall_mshr_miss_rate::total      0.999895                       # mshr miss rate for overall accesses
system.l2.demand_avg_mshr_miss_latency::.cpu.inst 65526.104418                       # average overall mshr miss latency
system.l2.demand_avg_mshr_miss_latency::.cpu.data 69903.021485                       # average overall mshr miss latency
system.l2.demand_avg_mshr_miss_latency::total 69901.556739                       # average overall mshr miss latency
system.l2.overall_avg_mshr_miss_latency::.cpu.inst 65526.104418                       # average overall mshr miss latency
system.l2.overall_avg_mshr_miss_latency::.cpu.data 69903.021485                       # average overall mshr miss latency
system.l2.overall_avg_mshr_miss_latency::total 69901.556739                       # average overall mshr miss latency
system.l2.replacements                        1455342                       # number of replacements
system.l2.WritebackDirty_hits::.writebacks      1486493                       # number of WritebackDirty hits
system.l2.WritebackDirty_hits::total          1486493                       # number of WritebackDirty hits
system.l2.WritebackDirty_accesses::.writebacks      1486493                       # number of WritebackDirty accesses(hits+misses)
system.l2.WritebackDirty_accesses::total      1486493                       # number of WritebackDirty accesses(hits+misses)
system.l2.WritebackClean_hits::.writebacks          367                       # number of WritebackClean hits
system.l2.WritebackClean_hits::total              367                       # number of WritebackClean hits
system.l2.WritebackClean_accesses::.writebacks          367                       # number of WritebackClean accesses(hits+misses)
system.l2.WritebackClean_accesses::total          367                       # number of WritebackClean accesses(hits+misses)
system.l2.ReadExReq_misses::.cpu.data         1487499                       # number of ReadExReq misses
system.l2.ReadExReq_misses::total             1487499                       # number of ReadExReq misses
system.l2.ReadExReq_miss_latency::.cpu.data 118855928500                       # number of ReadExReq miss cycles
system.l2.ReadExReq_miss_latency::total  118855928500                       # number of ReadExReq miss cycles
system.l2.ReadExReq_accesses::.cpu.data       1487499                       # number of ReadExReq accesses(hits+misses)
system.l2.ReadExReq_accesses::total           1487499                       # number of ReadExReq accesses(hits+misses)
system.l2.ReadExReq_miss_rate::.cpu.data            1                       # miss rate for ReadExReq accesses
system.l2.ReadExReq_miss_rate::total                1                       # miss rate for ReadExReq accesses
system.l2.ReadExReq_avg_miss_latency::.cpu.data 79903.198927                       # average ReadExReq miss latency
system.l2.ReadExReq_avg_miss_latency::total 79903.198927                       # average ReadExReq miss latency
system.l2.ReadExReq_mshr_misses::.cpu.data      1487499                       # number of ReadExReq MSHR misses
system.l2.ReadExReq_mshr_misses::total        1487499                       # number of ReadExReq MSHR misses
system.l2.ReadExReq_mshr_miss_latency::.cpu.data 103980948500                       # number of ReadExReq MSHR miss cycles
system.l2.ReadExReq_mshr_miss_latency::total 103980948500                       # number of ReadExReq MSHR miss cycles
system.l2.ReadExReq_mshr_miss_rate::.cpu.data            1                       # mshr miss rate for ReadExReq accesses
system.l2.ReadExReq_mshr_miss_rate::total            1                       # mshr miss rate for ReadExReq accesses
system.l2.ReadExReq_avg_mshr_miss_latency::.cpu.data 69903.205649                       # average ReadExReq mshr miss latency
system.l2.ReadExReq_avg_mshr_miss_latency::total 69903.205649                       # average ReadExReq mshr miss latency
system.l2.ReadCleanReq_hits::.cpu.inst            140                       # number of ReadCleanReq hits
system.l2.ReadCleanReq_hits::total                140                       # number of ReadCleanReq hits
system.l2.ReadCleanReq_misses::.cpu.inst          499                       # number of ReadCleanReq misses
system.l2.ReadCleanReq_misses::total              499                       # number of ReadCleanReq misses
system.l2.ReadCleanReq_miss_latency::.cpu.inst     37680500                       # number of ReadCleanReq miss cycles
system.l2.ReadCleanReq_miss_latency::total     37680500                       # number of ReadCleanReq miss cycles
system.l2.ReadCleanReq_accesses::.cpu.inst          639                       # number of ReadCleanReq accesses(hits+misses)
system.l2.ReadCleanReq_accesses::total            639                       # number of ReadCleanReq accesses(hits+misses)
system.l2.ReadCleanReq_miss_rate::.cpu.inst     0.780908                       # miss rate for ReadCleanReq accesses
system.l2.ReadCleanReq_miss_rate::total      0.780908                       # miss rate for ReadCleanReq accesses
system.l2.ReadCleanReq_avg_miss_latency::.cpu.inst 75512.024048                       # average ReadCleanReq miss latency
system.l2.ReadCleanReq_avg_miss_latency::total 75512.024048                       # average ReadCleanReq miss latency
system.l2.ReadCleanReq_mshr_hits::.cpu.inst            1                       # number of ReadCleanReq MSHR hits
system.l2.ReadCleanReq_mshr_hits::total             1                       # number of ReadCleanReq MSHR hits
system.l2.ReadCleanReq_mshr_misses::.cpu.inst          498                       # number of ReadCleanReq MSHR misses
system.l2.ReadCleanReq_mshr_misses::total          498                       # number of ReadCleanReq MSHR misses
system.l2.ReadCleanReq_mshr_miss_latency::.cpu.inst     32632000                       # number of ReadCleanReq MSHR miss cycles
system.l2.ReadCleanReq_mshr_miss_latency::total     32632000                       # number of ReadCleanReq MSHR miss cycles
system.l2.ReadCleanReq_mshr_miss_rate::.cpu.inst     0.779343                       # mshr miss rate for ReadCleanReq accesses
system.l2.ReadCleanReq_mshr_miss_rate::total     0.779343                       # mshr miss rate for ReadCleanReq accesses
system.l2.ReadCleanReq_avg_mshr_miss_latency::.cpu.inst 65526.104418                       # average ReadCleanReq mshr miss latency
system.l2.ReadCleanReq_avg_mshr_miss_latency::total 65526.104418                       # average ReadCleanReq mshr miss latency
system.l2.ReadSharedReq_hits::.cpu.data            13                       # number of ReadSharedReq hits
system.l2.ReadSharedReq_hits::total                13                       # number of ReadSharedReq hits
system.l2.ReadSharedReq_misses::.cpu.data          117                       # number of ReadSharedReq misses
system.l2.ReadSharedReq_misses::total             117                       # number of ReadSharedReq misses
system.l2.ReadSharedReq_miss_latency::.cpu.data      9036500                       # number of ReadSharedReq miss cycles
system.l2.ReadSharedReq_miss_latency::total      9036500                       # number of ReadSharedReq miss cycles
system.l2.ReadSharedReq_accesses::.cpu.data          130                       # number of ReadSharedReq accesses(hits+misses)
system.l2.ReadSharedReq_accesses::total           130                       # number of ReadSharedReq accesses(hits+misses)
system.l2.ReadSharedReq_miss_rate::.cpu.data     0.900000                       # miss rate for ReadSharedReq accesses
system.l2.ReadSharedReq_miss_rate::total     0.900000                       # miss rate for ReadSharedReq accesses
system.l2.ReadSharedReq_avg_miss_latency::.cpu.data 77235.042735                       # average ReadSharedReq miss latency
system.l2.ReadSharedReq_avg_miss_latency::total 77235.042735                       # average ReadSharedReq miss latency
system.l2.ReadSharedReq_mshr_hits::.cpu.data            3                       # number of ReadSharedReq MSHR hits
system.l2.ReadSharedReq_mshr_hits::total            3                       # number of ReadSharedReq MSHR hits
system.l2.ReadSharedReq_mshr_misses::.cpu.data          114                       # number of ReadSharedReq MSHR misses
system.l2.ReadSharedReq_mshr_misses::total          114                       # number of ReadSharedReq MSHR misses
system.l2.ReadSharedReq_mshr_miss_latency::.cpu.data      7695000                       # number of ReadSharedReq MSHR miss cycles
system.l2.ReadSharedReq_mshr_miss_latency::total      7695000                       # number of ReadSharedReq MSHR miss cycles
system.l2.ReadSharedReq_mshr_miss_rate::.cpu.data     0.876923                       # mshr miss rate for ReadSharedReq accesses
system.l2.ReadSharedReq_mshr_miss_rate::total     0.876923                       # mshr miss rate for ReadSharedReq accesses
system.l2.ReadSharedReq_avg_mshr_miss_latency::.cpu.data        67500                       # average ReadSharedReq mshr miss latency
system.l2.ReadSharedReq_avg_mshr_miss_latency::total        67500                       # average ReadSharedReq mshr miss latency
system.l2.power_state.pwrStateResidencyTicks::UNDEFINED 174773455500                       # Cumulative time (in ticks) in various power states
system.l2.tags.tagsinuse                 32428.817423                       # Cycle average of tags in use
system.l2.tags.total_refs                     2975221                       # Total number of references to valid blocks.
system.l2.tags.sampled_refs                   1488110                       # Sample count of references to valid blocks.
system.l2.tags.avg_refs                      1.999329                       # Average number of references to valid blocks.
system.l2.tags.warmup_cycle                     77000                       # Cycle when the warmup percentage was hit.
system.l2.tags.occ_blocks::.cpu.inst        10.119441                       # Average occupied blocks per requestor
system.l2.tags.occ_blocks::.cpu.data     32418.697981                       # Average occupied blocks per requestor
system.l2.tags.occ_percent::.cpu.inst        0.000309                       # Average percentage of cache occupancy
system.l2.tags.occ_percent::.cpu.data        0.989340                       # Average percentage of cache occupancy
system.l2.tags.occ_percent::total            0.989649                       # Average percentage of cache occupancy
system.l2.tags.occ_task_id_blocks::1024         32768                       # Occupied blocks per task id
system.l2.tags.age_task_id_blocks_1024::0           85                       # Occupied blocks per task id
system.l2.tags.age_task_id_blocks_1024::1          764                       # Occupied blocks per task id
system.l2.tags.age_task_id_blocks_1024::2         7655                       # Occupied blocks per task id
system.l2.tags.age_task_id_blocks_1024::3        24264                       # Occupied blocks per task id
system.l2.tags.occ_task_id_percent::1024            1                       # Percentage of cache occupancy per task id
system.l2.tags.tag_accesses                  49091726                       # Number of tag accesses
system.l2.tags.data_accesses                 49091726                       # Number of data accesses
system.l2.tags.power_state.pwrStateResidencyTicks::UNDEFINED 174773455500                       # Cumulative time (in ticks) in various power states
system.cpu_voltage_domain.voltage                   1                       # Voltage in Volts
system.mem_ctrls.avgPriority_.writebacks::samples   1454747.00                       # Average QoS priority value for accepted requests
system.mem_ctrls.avgPriority_.cpu.inst::samples       498.00                       # Average QoS priority value for accepted requests
system.mem_ctrls.avgPriority_.cpu.data::samples   1487612.00                       # Average QoS priority value for accepted requests
system.mem_ctrls.priorityMinLatency      0.000000018750                       # per QoS priority minimum request to response latency (s)
system.mem_ctrls.priorityMaxLatency      0.000075316500                       # per QoS priority maximum request to response latency (s)
system.mem_ctrls.numReadWriteTurnArounds        90900                       # Number of turnarounds from READ to WRITE
system.mem_ctrls.numWriteReadTurnArounds        90900                       # Number of turnarounds from WRITE to READ
system.mem_ctrls.numStayReadState             4382266                       # Number of times bus staying in READ state
system.mem_ctrls.numStayWriteState            1367556                       # Number of times bus staying in WRITE state
system.mem_ctrls.readReqs                     1488110                       # Number of read requests accepted
system.mem_ctrls.writeReqs                    1454747                       # Number of write requests accepted
system.mem_ctrls.readBursts                   1488110                       # Number of controller read bursts, including those serviced by the write queue
system.mem_ctrls.writeBursts                  1454747                       # Number of controller write bursts, including those merged in the write queue
system.mem_ctrls.servicedByWrQ                      0                       # Number of controller read bursts serviced by the write queue
system.mem_ctrls.mergedWrBursts                     0                       # Number of controller write bursts merged with an existing one
system.mem_ctrls.neitherReadNorWriteReqs            0                       # Number of requests that are neither read nor write
system.mem_ctrls.avgRdQLen                       1.00                       # Average read queue length when enqueuing
system.mem_ctrls.avgWrQLen                      25.36                       # Average write queue length when enqueuing
system.mem_ctrls.numRdRetry                         0                       # Number of times read queue was full causing retry
system.mem_ctrls.numWrRetry                         0                       # Number of times write queue was full causing retry
system.mem_ctrls.readPktSize::0                     0                       # Read request sizes (log2)
system.mem_ctrls.readPktSize::1                     0                       # Read request sizes (log2)
system.mem_ctrls.readPktSize::2                     0                       # Read request sizes (log2)
system.mem_ctrls.readPktSize::3                     0                       # Read request sizes (log2)
system.mem_ctrls.readPktSize::4                     0                       # Read request sizes (log2)
system.mem_ctrls.readPktSize::5                     0                       # Read request sizes (log2)
system.mem_ctrls.readPktSize::6               1488110                       # Read request sizes (log2)
system.mem_ctrls.writePktSize::0                    0                       # Write request sizes (log2)
system.mem_ctrls.writePktSize::1                    0                       # Write request sizes (log2)
system.mem_ctrls.writePktSize::2                    0                       # Write request sizes (log2)
system.mem_ctrls.writePktSize::3                    0                       # Write request sizes (log2)
system.mem_ctrls.writePktSize::4                    0                       # Write request sizes (log2)
system.mem_ctrls.writePktSize::5                    0                       # Write request sizes (log2)
system.mem_ctrls.writePktSize::6              1454747                       # Write request sizes (log2)
system.mem_ctrls.rdQLenPdf::0                 1488010                       # What read queue length does an incoming req see
system.mem_ctrls.rdQLenPdf::1                      93                       # What read queue length does an incoming req see
system.mem_ctrls.rdQLenPdf::2                       6                       # What read queue length does an incoming req see
system.mem_ctrls.rdQLenPdf::3                       1                       # What read queue length does an incoming req see
system.mem_ctrls.rdQLenPdf::4                       0                       # What read queue length does an incoming req see
system.mem_ctrls.rdQLenPdf::5                       0                       # What read queue length does an incoming req see
system.mem_ctrls.rdQLenPdf::6                       0                       # What read queue length does an incoming req see
system.mem_ctrls.rdQLenPdf::7                       0                       # What read queue length does an incoming req see
system.mem_ctrls.rdQLenPdf::8                       0                       # What read queue length does an incoming req see
system.mem_ctrls.rdQLenPdf::9                       0                       # What read queue length does an incoming req see
system.mem_ctrls.rdQLenPdf::10                      0                       # What read queue length does an incoming req see
system.mem_ctrls.rdQLenPdf::11                      0                       # What read queue length does an incoming req see
system.mem_ctrls.rdQLenPdf::12                      0                       # What read queue length does an incoming req see
system.mem_ctrls.rdQLenPdf::13                      0                       # What read queue length does an incoming req see
system.mem_ctrls.rdQLenPdf::14                      0                       # What read queue length does an incoming req see
system.mem_ctrls.rdQLenPdf::15                      0                       # What read queue length does an incoming req see
system.mem_ctrls.rdQLenPdf::16                      0                       # What read queue length does an incoming req see
system.mem_ctrls.rdQLenPdf::17                      0                       # What read queue length does an incoming req see
system.mem_ctrls.rdQLenPdf::18                      0                       # What read queue length does an incoming req see
system.mem_ctrls.rdQLenPdf::19                      0                       # What read queue length does an incoming req see
system.mem_ctrls.rdQLenPdf::20                      0                       # What read queue length does an incoming req see
system.mem_ctrls.rdQLenPdf::21                      0                       # What read queue length does an incoming req see
system.mem_ctrls.rdQLenPdf::22                      0                       # What read queue length does an incoming req see
system.mem_ctrls.rdQLenPdf::23                      0                       # What read queue length does an incoming req see
system.mem_ctrls.rdQLenPdf::24                      0                       # What read queue length does an incoming req see
system.mem_ctrls.rdQLenPdf::25                      0                       # What read queue length does an incoming req see
system.mem_ctrls.rdQLenPdf::26                      0                       # What read queue length does an incoming req see
system.mem_ctrls.rdQLenPdf::27                      0                       # What read queue length does an incoming req see
system.mem_ctrls.rdQLenPdf::28                      0                       # What read queue length does an incoming req see
system.mem_ctrls.rdQLenPdf::29                      0                       # What read queue length does an incoming req see
system.mem_ctrls.rdQLenPdf::30                      0                       # What read queue length does an incoming req see
system.mem_ctrls.rdQLenPdf::31                      0                       # What read queue length does an incoming req see
system.mem_ctrls.wrQLenPdf::0                       1                       # What write queue length does an incoming req see
system.mem_ctrls.wrQLenPdf::1                       1                       # What write queue length does an incoming req see
system.mem_ctrls.wrQLenPdf::2                       1                       # What write queue length does an incoming req see
system.mem_ctrls.wrQLenPdf::3                       1                       # What write queue length does an incoming req see
system.mem_ctrls.wrQLenPdf::4                       1                       # What write queue length does an incoming req see
system.mem_ctrls.wrQLenPdf::5                       1                       # What write queue length does an incoming req see
system.mem_ctrls.wrQLenPdf::6                       1                       # What write queue length does an incoming req see
system.mem_ctrls.wrQLenPdf::7                       1                       # What write queue length does an incoming req see
system.mem_ctrls.wrQLenPdf::8                       1                       # What write queue length does an incoming req see
system.mem_ctrls.wrQLenPdf::9                       1                       # What write queue length does an incoming req see
system.mem_ctrls.wrQLenPdf::10                      1                       # What write queue length does an incoming req see
system.mem_ctrls.wrQLenPdf::11                      1                       # What write queue length does an incoming req see
system.mem_ctrls.wrQLenPdf::12                      1                       # What write queue length does an incoming req see
system.mem_ctrls.wrQLenPdf::13                      1                       # What write queue length does an incoming req see
system.mem_ctrls.wrQLenPdf::14                      1                       # What write queue length does an incoming req see
system.mem_ctrls.wrQLenPdf::15                     63                       # What write queue length does an incoming req see
system.mem_ctrls.wrQLenPdf::16                    141                       # What write queue length does an incoming req see
system.mem_ctrls.wrQLenPdf::17                  90944                       # What write queue length does an incoming req see
system.mem_ctrls.wrQLenPdf::18                  90900                       # What write queue length does an incoming req see
system.mem_ctrls.wrQLenPdf::19                  90908                       # What write queue length does an incoming req see
system.mem_ctrls.wrQLenPdf::20                  90901                       # What write queue length does an incoming req see
system.mem_ctrls.wrQLenPdf::21                  90900                       # What write queue length does an incoming req see
system.mem_ctrls.wrQLenPdf::22                  90902                       # What write queue length does an incoming req see
system.mem_ctrls.wrQLenPdf::23                  90900                       # What write queue length does an incoming req see
system.mem_ctrls.wrQLenPdf::24                  90902                       # What write queue length does an incoming req see
system.mem_ctrls.wrQLenPdf::25                  90971                       # What write queue length does an incoming req see
system.mem_ctrls.wrQLenPdf::26                  90900                       # What write queue length does an incoming req see
system.mem_ctrls.wrQLenPdf::27                  90900                       # What write queue length does an incoming req see
system.mem_ctrls.wrQLenPdf::28                  90900                       # What write queue length does an incoming req see
system.mem_ctrls.wrQLenPdf::29                  90900                       # What write queue length does an incoming req see
system.mem_ctrls.wrQLenPdf::30                  90900                       # What write queue length does an incoming req see
system.mem_ctrls.wrQLenPdf::31                  90900                       # What write queue length does an incoming req see
system.mem_ctrls.wrQLenPdf::32                  90900                       # What write queue length does an incoming req see
system.mem_ctrls.wrQLenPdf::33                      0                       # What write queue length does an incoming req see
system.mem_ctrls.wrQLenPdf::34                      0                       # What write queue length does an incoming req see
system.mem_ctrls.wrQLenPdf::35                      0                       # What write queue length does an incoming req see
system.mem_ctrls.wrQLenPdf::36                      0                       # What write queue length does an incoming req see
system.mem_ctrls.wrQLenPdf::37                      0                       # What write queue length does an incoming req see
system.mem_ctrls.wrQLenPdf::38                      0                       # What write queue length does an incoming req see
system.mem_ctrls.wrQLenPdf::39                      0                       # What write queue length does an incoming req see
system.mem_ctrls.wrQLenPdf::40                      0                       # What write queue length does an incoming req see
system.mem_ctrls.wrQLenPdf::41                      0                       # What write queue length does an incoming req see
system.mem_ctrls.wrQLenPdf::42                      0                       # What write queue length does an incoming req see
system.mem_ctrls.wrQLenPdf::43                      0                       # What write queue length does an incoming req see
system.mem_ctrls.wrQLenPdf::44                      0                       # What write queue length does an incoming req see
system.mem_ctrls.wrQLenPdf::45                      0                       # What write queue length does an incoming req see
system.mem_ctrls.wrQLenPdf::46                      0                       # What write queue length does an incoming req see
system.mem_ctrls.wrQLenPdf::47                      0                       # What write queue length does an incoming req see
system.mem_ctrls.wrQLenPdf::48                      0                       # What write queue length does an incoming req see
system.mem_ctrls.wrQLenPdf::49                      0                       # What write queue length does an incoming req see
system.mem_ctrls.wrQLenPdf::50                      0                       # What write queue length does an incoming req see
system.mem_ctrls.wrQLenPdf::51                      0                       # What write queue length does an incoming req see
system.mem_ctrls.wrQLenPdf::52                      0                       # What write queue length does an incoming req see
system.mem_ctrls.wrQLenPdf::53                      0                       # What write queue length does an incoming req see
system.mem_ctrls.wrQLenPdf::54                      0                       # What write queue length does an incoming req see
system.mem_ctrls.wrQLenPdf::55                      0                       # What write queue length does an incoming req see
system.mem_ctrls.wrQLenPdf::56                      0                       # What write queue length does an incoming req see
system.mem_ctrls.wrQLenPdf::57                      0                       # What write queue length does an incoming req see
system.mem_ctrls.wrQLenPdf::58                      0                       # What write queue length does an incoming req see
system.mem_ctrls.wrQLenPdf::59                      0                       # What write queue length does an incoming req see
system.mem_ctrls.wrQLenPdf::60                      0                       # What write queue length does an incoming req see
system.mem_ctrls.wrQLenPdf::61                      0                       # What write queue length does an incoming req see
system.mem_ctrls.wrQLenPdf::62                      0                       # What write queue length does an incoming req see
system.mem_ctrls.wrQLenPdf::63                      0                       # What write queue length does an incoming req see
system.mem_ctrls.rdPerTurnAround::samples        90900                       # Reads before turning the bus around for writes
system.mem_ctrls.rdPerTurnAround::mean      16.370836                       # Reads before turning the bus around for writes
system.mem_ctrls.rdPerTurnAround::gmean     16.006346                       # Reads before turning the bus around for writes
system.mem_ctrls.rdPerTurnAround::stdev    109.188324                       # Reads before turning the bus around for writes
system.mem_ctrls.rdPerTurnAround::0-2047        90899    100.00%    100.00% # Reads before turning the bus around for writes
system.mem_ctrls.rdPerTurnAround::32768-34815            1      0.00%    100.00% # Reads before turning the bus around for writes
system.mem_ctrls.rdPerTurnAround::total         90900                       # Reads before turning the bus around for writes
system.mem_ctrls.wrPerTurnAround::samples        90900                       # Writes before turning the bus around for reads
system.mem_ctrls.wrPerTurnAround::mean      16.003619                       # Writes before turning the bus around for reads
system.mem_ctrls.wrPerTurnAround::gmean     16.003358                       # Writes before turning the bus around for reads
system.mem_ctrls.wrPerTurnAround::stdev      0.096234                       # Writes before turning the bus around for reads
system.mem_ctrls.wrPerTurnAround::16            90766     99.85%     99.85% # Writes before turning the bus around for reads
system.mem_ctrls.wrPerTurnAround::17                1      0.00%     99.85% # Writes before turning the bus around for reads
system.mem_ctrls.wrPerTurnAround::18               71      0.08%     99.93% # Writes before turning the bus around for reads
system.mem_ctrls.wrPerTurnAround::19               62      0.07%    100.00% # Writes before turning the bus around for reads
system.mem_ctrls.wrPerTurnAround::total         90900                       # Writes before turning the bus around for reads
system.mem_ctrls.bytesReadWrQ                       0                       # Total number of bytes read from write queue
system.mem_ctrls.bytesReadSys                95239040                       # Total read bytes from the system interface side
system.mem_ctrls.bytesWrittenSys             93103808                       # Total written bytes from the system interface side
system.mem_ctrls.avgRdBWSys                    544.93                       # Average system read bandwidth in MiByte/s
system.mem_ctrls.avgWrBWSys                    532.71                       # Average system write bandwidth in MiByte/s
system.mem_ctrls.totGap                  174773403000                       # Total gap between requests
system.mem_ctrls.avgGap                      59389.02                       # Average gap between requests
system.mem_ctrls.requestorReadBytes::.cpu.inst        31872                       # Per-requestor bytes read from memory
system.mem_ctrls.requestorReadBytes::.cpu.data     95207168                       # Per-requestor bytes read from memory
system.mem_ctrls.requestorWriteBytes::.writebacks     93102656                       # Per-requestor bytes write to memory
system.mem_ctrls.requestorReadRate::.cpu.inst 182361.788915937504                       # Per-requestor bytes read from memory rate (Bytes/sec)
system.mem_ctrls.requestorReadRate::.cpu.data 544746155.688384771347                       # Per-requestor bytes read from memory rate (Bytes/sec)
system.mem_ctrls.requestorWriteRate::.writebacks 532704784.794965565205                       # Per-requestor bytes write to memory rate (Bytes/sec)
system.mem_ctrls.requestorReadAccesses::.cpu.inst          498                       # Per-requestor read serviced memory accesses
system.mem_ctrls.requestorReadAccesses::.cpu.data      1487612                       # Per-requestor read serviced memory accesses
system.mem_ctrls.requestorWriteAccesses::.writebacks      1454747                       # Per-requestor write serviced memory accesses
system.mem_ctrls.requestorReadTotalLat::.cpu.inst     12256750                       # Per-requestor read total memory access latency
system.mem_ctrls.requestorReadTotalLat::.cpu.data  42750479500                       # Per-requestor read total memory access latency
system.mem_ctrls.requestorWriteTotalLat::.writebacks 4238949053250                       # Per-requestor write total memory access latency
system.mem_ctrls.requestorReadAvgLat::.cpu.inst     24611.95                       # Per-requestor read average memory access latency
system.mem_ctrls.requestorReadAvgLat::.cpu.data     28737.65                       # Per-requestor read average memory access latency
system.mem_ctrls.requestorWriteAvgLat::.writebacks   2913873.72                       # Per-requestor write average memory access latency
system.mem_ctrls.dram.bytes_read::.cpu.inst        31872                       # Number of bytes read from this memory
system.mem_ctrls.dram.bytes_read::.cpu.data     95207168                       # Number of bytes read from this memory
system.mem_ctrls.dram.bytes_read::total      95239040                       # Number of bytes read from this memory
system.mem_ctrls.dram.bytes_inst_read::.cpu.inst        31872                       # Number of instructions bytes read from this memory
system.mem_ctrls.dram.bytes_inst_read::total        31872                       # Number of instructions bytes read from this memory
system.mem_ctrls.dram.bytes_written::.writebacks     93103808                       # Number of bytes written to this memory
system.mem_ctrls.dram.bytes_written::total     93103808                       # Number of bytes written to this memory
system.mem_ctrls.dram.num_reads::.cpu.inst          498                       # Number of read requests responded to by this memory
system.mem_ctrls.dram.num_reads::.cpu.data      1487612                       # Number of read requests responded to by this memory
system.mem_ctrls.dram.num_reads::total        1488110                       # Number of read requests responded to by this memory
system.mem_ctrls.dram.num_writes::.writebacks      1454747                       # Number of write requests responded to by this memory
system.mem_ctrls.dram.num_writes::total       1454747                       # Number of write requests responded to by this memory
system.mem_ctrls.dram.bw_read::.cpu.inst       182362                       # Total read bandwidth from this memory (bytes/s)
system.mem_ctrls.dram.bw_read::.cpu.data    544746156                       # Total read bandwidth from this memory (bytes/s)
system.mem_ctrls.dram.bw_read::total        544928517                       # Total read bandwidth from this memory (bytes/s)
system.mem_ctrls.dram.bw_inst_read::.cpu.inst       182362                       # Instruction read bandwidth from this memory (bytes/s)
system.mem_ctrls.dram.bw_inst_read::total       182362                       # Instruction read bandwidth from this memory (bytes/s)
system.mem_ctrls.dram.bw_write::.writebacks    532711376                       # Write bandwidth from this memory (bytes/s)
system.mem_ctrls.dram.bw_write::total       532711376                       # Write bandwidth from this memory (bytes/s)
system.mem_ctrls.dram.bw_total::.writebacks    532711376                       # Total bandwidth to/from this memory (bytes/s)
system.mem_ctrls.dram.bw_total::.cpu.inst       182362                       # Total bandwidth to/from this memory (bytes/s)
system.mem_ctrls.dram.bw_total::.cpu.data    544746156                       # Total bandwidth to/from this memory (bytes/s)
system.mem_ctrls.dram.bw_total::total      1077639894                       # Total bandwidth to/from this memory (bytes/s)
system.mem_ctrls.dram.readBursts              1488110                       # Number of DRAM read bursts
system.mem_ctrls.dram.writeBursts             1454729                       # Number of DRAM write bursts
system.mem_ctrls.dram.perBankRdBursts::0        93031                       # Per bank write bursts
system.mem_ctrls.dram.perBankRdBursts::1        92977                       # Per bank write bursts
system.mem_ctrls.dram.perBankRdBursts::2        93000                       # Per bank write bursts
system.mem_ctrls.dram.perBankRdBursts::3        92951                       # Per bank write bursts
system.mem_ctrls.dram.perBankRdBursts::4        92982                       # Per bank write bursts
system.mem_ctrls.dram.perBankRdBursts::5        93010                       # Per bank write bursts
system.mem_ctrls.dram.perBankRdBursts::6        93062                       # Per bank write bursts
system.mem_ctrls.dram.perBankRdBursts::7        93077                       # Per bank write bursts
system.mem_ctrls.dram.perBankRdBursts::8        93154                       # Per bank write bursts
system.mem_ctrls.dram.perBankRdBursts::9        93077                       # Per bank write bursts
system.mem_ctrls.dram.perBankRdBursts::10        92957                       # Per bank write bursts
system.mem_ctrls.dram.perBankRdBursts::11        92951                       # Per bank write bursts
system.mem_ctrls.dram.perBankRdBursts::12        92997                       # Per bank write bursts
system.mem_ctrls.dram.perBankRdBursts::13        92953                       # Per bank write bursts
system.mem_ctrls.dram.perBankRdBursts::14        92960                       # Per bank write bursts
system.mem_ctrls.dram.perBankRdBursts::15        92971                       # Per bank write bursts
system.mem_ctrls.dram.perBankWrBursts::0        90883                       # Per bank write bursts
system.mem_ctrls.dram.perBankWrBursts::1        90920                       # Per bank write bursts
system.mem_ctrls.dram.perBankWrBursts::2        90903                       # Per bank write bursts
system.mem_ctrls.dram.perBankWrBursts::3        90895                       # Per bank write bursts
system.mem_ctrls.dram.perBankWrBursts::4        90887                       # Per bank write bursts
system.mem_ctrls.dram.perBankWrBursts::5        90945                       # Per bank write bursts
system.mem_ctrls.dram.perBankWrBursts::6        91008                       # Per bank write bursts
system.mem_ctrls.dram.perBankWrBursts::7        91008                       # Per bank write bursts
system.mem_ctrls.dram.perBankWrBursts::8        91008                       # Per bank write bursts
system.mem_ctrls.dram.perBankWrBursts::9        90992                       # Per bank write bursts
system.mem_ctrls.dram.perBankWrBursts::10        90880                       # Per bank write bursts
system.mem_ctrls.dram.perBankWrBursts::11        90880                       # Per bank write bursts
system.mem_ctrls.dram.perBankWrBursts::12        90880                       # Per bank write bursts
system.mem_ctrls.dram.perBankWrBursts::13        90880                       # Per bank write bursts
system.mem_ctrls.dram.perBankWrBursts::14        90880                       # Per bank write bursts
system.mem_ctrls.dram.perBankWrBursts::15        90880                       # Per bank write bursts
system.mem_ctrls.dram.totQLat             14860673750                       # Total ticks spent queuing
system.mem_ctrls.dram.totBusLat            7440550000                       # Total ticks spent in databus transfers
system.mem_ctrls.dram.totMemAccLat        42762736250                       # Total ticks spent from burst creation until serviced by the DRAM
system.mem_ctrls.dram.avgQLat                 9986.27                       # Average queueing delay per DRAM burst
system.mem_ctrls.dram.avgBusLat               5000.00                       # Average bus latency per DRAM burst
system.mem_ctrls.dram.avgMemAccLat           28736.27                       # Average memory access latency per DRAM burst
system.mem_ctrls.dram.readRowHits             1367537                       # Number of row buffer hits during reads
system.mem_ctrls.dram.writeRowHits            1361841                       # Number of row buffer hits during writes
system.mem_ctrls.dram.readRowHitRate            91.90                       # Row buffer hit rate for reads
system.mem_ctrls.dram.writeRowHitRate           93.61                       # Row buffer hit rate for writes
system.mem_ctrls.dram.bytesPerActivate::samples       213460                       # Bytes accessed per row activation
system.mem_ctrls.dram.bytesPerActivate::mean   882.327218                       # Bytes accessed per row activation
system.mem_ctrls.dram.bytesPerActivate::gmean   767.814748                       # Bytes accessed per row activation
system.mem_ctrls.dram.bytesPerActivate::stdev   286.452878                       # Bytes accessed per row activation
system.mem_ctrls.dram.bytesPerActivate::0-127        10672      5.00%      5.00% # Bytes accessed per row activation
system.mem_ctrls.dram.bytesPerActivate::128-255         6165      2.89%      7.89% # Bytes accessed per row activation
system.mem_ctrls.dram.bytesPerActivate::256-383         4749      2.22%     10.11% # Bytes accessed per row activation
system.mem_ctrls.dram.bytesPerActivate::384-511         7028      3.29%     13.40% # Bytes accessed per row activation
system.mem_ctrls.dram.bytesPerActivate::512-639         4703      2.20%     15.61% # Bytes accessed per row activation
system.mem_ctrls.dram.bytesPerActivate::640-767         7114      3.33%     18.94% # Bytes accessed per row activation
system.mem_ctrls.dram.bytesPerActivate::768-895         5368      2.51%     21.46% # Bytes accessed per row activation
system.mem_ctrls.dram.bytesPerActivate::896-1023        14944      7.00%     28.46% # Bytes accessed per row activation
system.mem_ctrls.dram.bytesPerActivate::1024-1151       152717     71.54%    100.00% # Bytes accessed per row activation
system.mem_ctrls.dram.bytesPerActivate::total       213460                       # Bytes accessed per row activation
system.mem_ctrls.dram.bytesRead              95239040                       # Total number of bytes read from DRAM
system.mem_ctrls.dram.bytesWritten           93102656                       # Total number of bytes written to DRAM
system.mem_ctrls.dram.avgRdBW              544.928517                       # Average DRAM read bandwidth in MiBytes/s
system.mem_ctrls.dram.avgWrBW              532.704785                       # Average DRAM write bandwidth in MiBytes/s
system.mem_ctrls.dram.peakBW                 12800.00                       # Theoretical peak bandwidth in MiByte/s
system.mem_ctrls.dram.busUtil                    8.42                       # Data bus utilization in percentage
system.mem_ctrls.dram.busUtilRead                4.26                       # Data bus utilization in percentage for reads
system.mem_ctrls.dram.busUtilWrite               4.16                       # Data bus utilization in percentage for writes
system.mem_ctrls.dram.pageHitRate               92.75                       # Row buffer hit rate, read and write combined
system.mem_ctrls.dram.rank1.actEnergy       761909400                       # Energy for activate commands per rank (pJ)
system.mem_ctrls.dram.rank1.preEnergy       404960655                       # Energy for precharge commands per rank (pJ)
system.mem_ctrls.dram.rank1.readEnergy     5312302800                       # Energy for read commands per rank (pJ)
system.mem_ctrls.dram.rank1.writeEnergy    3796401600                       # Energy for write commands per rank (pJ)
system.mem_ctrls.dram.rank1.refreshEnergy 13796209440.000002                       # Energy for refresh commands per rank (pJ)
system.mem_ctrls.dram.rank1.actBackEnergy  39945548130                       # Energy for active background per rank (pJ)
system.mem_ctrls.dram.rank1.preBackEnergy  33474650880                       # Energy for precharge background per rank (pJ)
system.mem_ctrls.dram.rank1.actPowerDownEnergy            0                       # Energy for active power-down per rank (pJ)
system.mem_ctrls.dram.rank1.prePowerDownEnergy            0                       # Energy for precharge power-down per rank (pJ)
system.mem_ctrls.dram.rank1.selfRefreshEnergy            0                       # Energy for self refresh per rank (pJ)
system.mem_ctrls.dram.rank1.totalEnergy   97491982905                       # Total energy per rank (pJ)
system.mem_ctrls.dram.rank1.averagePower   557.819164                       # Core power per rank (mW)
system.mem_ctrls.dram.rank1.totalIdleTime            0                       # Total Idle time Per DRAM Rank
system.mem_ctrls.dram.rank1.pwrStateTime::IDLE  85636245500                       # Time in different power states
system.mem_ctrls.dram.rank1.pwrStateTime::REF   5835960000                       # Time in different power states
system.mem_ctrls.dram.rank1.pwrStateTime::SREF            0                       # Time in different power states
system.mem_ctrls.dram.rank1.pwrStateTime::PRE_PDN            0                       # Time in different power states
system.mem_ctrls.dram.rank1.pwrStateTime::ACT  83301250000                       # Time in different power states
system.mem_ctrls.dram.rank1.pwrStateTime::ACT_PDN            0                       # Time in different power states
system.mem_ctrls.dram.rank0.actEnergy       762202140                       # Energy for activate commands per rank (pJ)
system.mem_ctrls.dram.rank0.preEnergy       405120045                       # Energy for precharge commands per rank (pJ)
system.mem_ctrls.dram.rank0.readEnergy     5312802600                       # Energy for read commands per rank (pJ)
system.mem_ctrls.dram.rank0.writeEnergy    3797283780                       # Energy for write commands per rank (pJ)
system.mem_ctrls.dram.rank0.refreshEnergy 13796209440.000002                       # Energy for refresh commands per rank (pJ)
system.mem_ctrls.dram.rank0.actBackEnergy  39953326920                       # Energy for active background per rank (pJ)
system.mem_ctrls.dram.rank0.preBackEnergy  33468100320                       # Energy for precharge background per rank (pJ)
system.mem_ctrls.dram.rank0.actPowerDownEnergy            0                       # Energy for active power-down per rank (pJ)
system.mem_ctrls.dram.rank0.prePowerDownEnergy            0                       # Energy for precharge power-down per rank (pJ)
system.mem_ctrls.dram.rank0.selfRefreshEnergy            0                       # Energy for self refresh per rank (pJ)
system.mem_ctrls.dram.rank0.totalEnergy   97495045245                       # Total energy per rank (pJ)
system.mem_ctrls.dram.rank0.averagePower   557.836686                       # Core power per rank (mW)
system.mem_ctrls.dram.rank0.totalIdleTime            0                       # Total Idle time Per DRAM Rank
system.mem_ctrls.dram.rank0.pwrStateTime::IDLE  85620079750                       # Time in different power states
system.mem_ctrls.dram.rank0.pwrStateTime::REF   5835960000                       # Time in different power states
system.mem_ctrls.dram.rank0.pwrStateTime::SREF            0                       # Time in different power states
system.mem_ctrls.dram.rank0.pwrStateTime::PRE_PDN            0                       # Time in different power states
system.mem_ctrls.dram.rank0.pwrStateTime::ACT  83317415750                       # Time in different power states
system.mem_ctrls.dram.rank0.pwrStateTime::ACT_PDN            0                       # Time in different power states
system.mem_ctrls.dram.power_state.pwrStateResidencyTicks::UNDEFINED 174773455500                       # Cumulative time (in ticks) in various power states
system.mem_ctrls.power_state.pwrStateResidencyTicks::UNDEFINED 174773455500                       # Cumulative time (in ticks) in various power states
system.cpu_clk_domain.clock                       500                       # Clock period in ticks
system.cpu.icache.demand_hits::.cpu.inst      6045882                       # number of demand (read+write) hits
system.cpu.icache.demand_hits::total          6045882                       # number of demand (read+write) hits
system.cpu.icache.overall_hits::.cpu.inst      6045882                       # number of overall hits
system.cpu.icache.overall_hits::total         6045882                       # number of overall hits
system.cpu.icache.demand_misses::.cpu.inst          639                       # number of demand (read+write) misses
system.cpu.icache.demand_misses::total            639                       # number of demand (read+write) misses
system.cpu.icache.overall_misses::.cpu.inst          639                       # number of overall misses
system.cpu.icache.overall_misses::total           639                       # number of overall misses
system.cpu.icache.demand_miss_latency::.cpu.inst     40783500                       # number of demand (read+write) miss cycles
system.cpu.icache.demand_miss_latency::total     40783500                       # number of demand (read+write) miss cycles
system.cpu.icache.overall_miss_latency::.cpu.inst     40783500                       # number of overall miss cycles
system.cpu.icache.overall_miss_latency::total     40783500                       # number of overall miss cycles
system.cpu.icache.demand_accesses::.cpu.inst      6046521                       # number of demand (read+write) accesses
system.cpu.icache.demand_accesses::total      6046521                       # number of demand (read+write) accesses
system.cpu.icache.overall_accesses::.cpu.inst      6046521                       # number of overall (read+write) accesses
system.cpu.icache.overall_accesses::total      6046521                       # number of overall (read+write) accesses
system.cpu.icache.demand_miss_rate::.cpu.inst     0.000106                       # miss rate for demand accesses
system.cpu.icache.demand_miss_rate::total     0.000106                       # miss rate for demand accesses
system.cpu.icache.overall_miss_rate::.cpu.inst     0.000106                       # miss rate for overall accesses
system.cpu.icache.overall_miss_rate::total     0.000106                       # miss rate for overall accesses
system.cpu.icache.demand_avg_miss_latency::.cpu.inst 63823.943662                       # average overall miss latency
system.cpu.icache.demand_avg_miss_latency::total 63823.943662                       # average overall miss latency
system.cpu.icache.overall_avg_miss_latency::.cpu.inst 63823.943662                       # average overall miss latency
system.cpu.icache.overall_avg_miss_latency::total 63823.943662                       # average overall miss latency
system.cpu.icache.blocked_cycles::no_mshrs            0                       # number of cycles access was blocked
system.cpu.icache.blocked_cycles::no_targets            0                       # number of cycles access was blocked
system.cpu.icache.blocked::no_mshrs                 0                       # number of cycles access was blocked
system.cpu.icache.blocked::no_targets               0                       # number of cycles access was blocked
system.cpu.icache.avg_blocked_cycles::no_mshrs          nan                       # average number of cycles each access was blocked
system.cpu.icache.avg_blocked_cycles::no_targets          nan                       # average number of cycles each access was blocked
system.cpu.icache.writebacks::.writebacks          386                       # number of writebacks
system.cpu.icache.writebacks::total               386                       # number of writebacks
system.cpu.icache.demand_mshr_misses::.cpu.inst          639                       # number of demand (read+write) MSHR misses
system.cpu.icache.demand_mshr_misses::total          639                       # number of demand (read+write) MSHR misses
system.cpu.icache.overall_mshr_misses::.cpu.inst          639                       # number of overall MSHR misses
system.cpu.icache.overall_mshr_misses::total          639                       # number of overall MSHR misses
system.cpu.icache.demand_mshr_miss_latency::.cpu.inst     40144500                       # number of demand (read+write) MSHR miss cycles
system.cpu.icache.demand_mshr_miss_latency::total     40144500                       # number of demand (read+write) MSHR miss cycles
system.cpu.icache.overall_mshr_miss_latency::.cpu.inst     40144500                       # number of overall MSHR miss cycles
system.cpu.icache.overall_mshr_miss_latency::total     40144500                       # number of overall MSHR miss cycles
system.cpu.icache.demand_mshr_miss_rate::.cpu.inst     0.000106                       # mshr miss rate for demand accesses
system.cpu.icache.demand_mshr_miss_rate::total     0.000106                       # mshr miss rate for demand accesses
system.cpu.icache.overall_mshr_miss_rate::.cpu.inst     0.000106                       # mshr miss rate for overall accesses
system.cpu.icache.overall_mshr_miss_rate::total     0.000106                       # mshr miss rate for overall accesses
system.cpu.icache.demand_avg_mshr_miss_latency::.cpu.inst 62823.943662                       # average overall mshr miss latency
system.cpu.icache.demand_avg_mshr_miss_latency::total 62823.943662                       # average overall mshr miss latency
system.cpu.icache.overall_avg_mshr_miss_latency::.cpu.inst 62823.943662                       # average overall mshr miss latency
system.cpu.icache.overall_avg_mshr_miss_latency::total 62823.943662                       # average overall mshr miss latency
system.cpu.icache.replacements                    386                       # number of replacements
system.cpu.icache.ReadReq_hits::.cpu.inst      6045882                       # number of ReadReq hits
system.cpu.icache.ReadReq_hits::total         6045882                       # number of ReadReq hits
system.cpu.icache.ReadReq_misses::.cpu.inst          639                       # number of ReadReq misses
system.cpu.icache.ReadReq_misses::total           639                       # number of ReadReq misses
system.cpu.icache.ReadReq_miss_latency::.cpu.inst     40783500                       # number of ReadReq miss cycles
system.cpu.icache.ReadReq_miss_latency::total     40783500                       # number of ReadReq miss cycles
system.cpu.icache.ReadReq_accesses::.cpu.inst      6046521                       # number of ReadReq accesses(hits+misses)
system.cpu.icache.ReadReq_accesses::total      6046521                       # number of ReadReq accesses(hits+misses)
system.cpu.icache.ReadReq_miss_rate::.cpu.inst     0.000106                       # miss rate for ReadReq accesses
[...]
system.cpu.dcache.ReadReq_misses::.cpu.data          120                       # number of ReadReq misses
system.cpu.dcache.ReadReq_misses::total           120                       # number of ReadReq misses
system.cpu.dcache.ReadReq_miss_latency::.cpu.data      8677000                       # number of ReadReq miss cycles
system.cpu.dcache.ReadReq_miss_latency::total      8677000                       # number of ReadReq miss cycles
system.cpu.dcache.ReadReq_accesses::.cpu.data     35702638                       # number of ReadReq accesses(hits+misses)
system.cpu.dcache.ReadReq_accesses::total     35702638                       # number of ReadReq accesses(hits+misses)
system.cpu.dcache.ReadReq_miss_rate::.cpu.data     0.000003                       # miss rate for ReadReq accesses
system.cpu.dcache.ReadReq_miss_rate::total     0.000003                       # miss rate for ReadReq accesses
system.cpu.dcache.ReadReq_avg_miss_latency::.cpu.data 72308.333333                       # average ReadReq miss latency
system.cpu.dcache.ReadReq_avg_miss_latency::total 72308.333333                       # average ReadReq miss latency
system.cpu.dcache.ReadReq_mshr_hits::.cpu.data            4                       # number of ReadReq MSHR hits
system.cpu.dcache.ReadReq_mshr_hits::total            4                       # number of ReadReq MSHR hits
system.cpu.dcache.ReadReq_mshr_misses::.cpu.data          116                       # number of ReadReq MSHR misses
system.cpu.dcache.ReadReq_mshr_misses::total          116                       # number of ReadReq MSHR misses
system.cpu.dcache.ReadReq_mshr_miss_latency::.cpu.data      8292000                       # number of ReadReq MSHR miss cycles
system.cpu.dcache.ReadReq_mshr_miss_latency::total      8292000                       # number of ReadReq MSHR miss cycles
system.cpu.dcache.ReadReq_mshr_miss_rate::.cpu.data     0.000003                       # mshr miss rate for ReadReq accesses
system.cpu.dcache.ReadReq_mshr_miss_rate::total     0.000003                       # mshr miss rate for ReadReq accesses
system.cpu.dcache.ReadReq_avg_mshr_miss_latency::.cpu.data 71482.758621                       # average ReadReq mshr miss latency
system.cpu.dcache.ReadReq_avg_mshr_miss_latency::total 71482.758621                       # average ReadReq mshr miss latency
system.cpu.dcache.WriteReq_hits::.cpu.data     10117547                       # number of WriteReq hits
system.cpu.dcache.WriteReq_hits::total       10117547                       # number of WriteReq hits
system.cpu.dcache.WriteReq_misses::.cpu.data      2974975                       # number of WriteReq misses
system.cpu.dcache.WriteReq_misses::total      2974975                       # number of WriteReq misses
system.cpu.dcache.WriteReq_miss_latency::.cpu.data 237254636500                       # number of WriteReq miss cycles
system.cpu.dcache.WriteReq_miss_latency::total 237254636500                       # number of WriteReq miss cycles
system.cpu.dcache.WriteReq_accesses::.cpu.data     13092522                       # number of WriteReq accesses(hits+misses)
system.cpu.dcache.WriteReq_accesses::total     13092522                       # number of WriteReq accesses(hits+misses)
system.cpu.dcache.WriteReq_miss_rate::.cpu.data     0.227227                       # miss rate for WriteReq accesses
system.cpu.dcache.WriteReq_miss_rate::total     0.227227                       # miss rate for WriteReq accesses
system.cpu.dcache.WriteReq_avg_miss_latency::.cpu.data 79750.127816                       # average WriteReq miss latency
system.cpu.dcache.WriteReq_avg_miss_latency::total 79750.127816                       # average WriteReq miss latency
system.cpu.dcache.WriteReq_mshr_hits::.cpu.data      1487476                       # number of WriteReq MSHR hits
system.cpu.dcache.WriteReq_mshr_hits::total      1487476                       # number of WriteReq MSHR hits
system.cpu.dcache.WriteReq_mshr_misses::.cpu.data      1487499                       # number of WriteReq MSHR misses
system.cpu.dcache.WriteReq_mshr_misses::total      1487499                       # number of WriteReq MSHR misses
system.cpu.dcache.WriteReq_mshr_miss_latency::.cpu.data 121087176500                       # number of WriteReq MSHR miss cycles
system.cpu.dcache.WriteReq_mshr_miss_latency::total 121087176500                       # number of WriteReq MSHR miss cycles
system.cpu.dcache.WriteReq_mshr_miss_rate::.cpu.data     0.113614                       # mshr miss rate for WriteReq accesses
system.cpu.dcache.WriteReq_mshr_miss_rate::total     0.113614                       # mshr miss rate for WriteReq accesses
system.cpu.dcache.WriteReq_avg_mshr_miss_latency::.cpu.data 81403.198590                       # average WriteReq mshr miss latency
system.cpu.dcache.WriteReq_avg_mshr_miss_latency::total 81403.198590                       # average WriteReq mshr miss latency
system.cpu.dcache.SoftPFReq_hits::.cpu.data           36                       # number of SoftPFReq hits
system.cpu.dcache.SoftPFReq_hits::total            36                       # number of SoftPFReq hits
system.cpu.dcache.SoftPFReq_misses::.cpu.data           17                       # number of SoftPFReq misses
system.cpu.dcache.SoftPFReq_misses::total           17                       # number of SoftPFReq misses
system.cpu.dcache.SoftPFReq_accesses::.cpu.data           53                       # number of SoftPFReq accesses(hits+misses)
system.cpu.dcache.SoftPFReq_accesses::total           53                       # number of SoftPFReq accesses(hits+misses)
system.cpu.dcache.SoftPFReq_miss_rate::.cpu.data     0.320755                       # miss rate for SoftPFReq accesses
system.cpu.dcache.SoftPFReq_miss_rate::total     0.320755                       # miss rate for SoftPFReq accesses
system.cpu.dcache.SoftPFReq_mshr_misses::.cpu.data           14                       # number of SoftPFReq MSHR misses
system.cpu.dcache.SoftPFReq_mshr_misses::total           14                       # number of SoftPFReq MSHR misses
system.cpu.dcache.SoftPFReq_mshr_miss_latency::.cpu.data      1093000                       # number of SoftPFReq MSHR miss cycles
system.cpu.dcache.SoftPFReq_mshr_miss_latency::total      1093000                       # number of SoftPFReq MSHR miss cycles
system.cpu.dcache.SoftPFReq_mshr_miss_rate::.cpu.data     0.264151                       # mshr miss rate for SoftPFReq accesses
system.cpu.dcache.SoftPFReq_mshr_miss_rate::total     0.264151                       # mshr miss rate for SoftPFReq accesses
system.cpu.dcache.SoftPFReq_avg_mshr_miss_latency::.cpu.data 78071.428571                       # average SoftPFReq mshr miss latency
system.cpu.dcache.SoftPFReq_avg_mshr_miss_latency::total 78071.428571                       # average SoftPFReq mshr miss latency
system.cpu.dcache.LoadLockedReq_hits::.cpu.data           14                       # number of LoadLockedReq hits
system.cpu.dcache.LoadLockedReq_hits::total           14                       # number of LoadLockedReq hits
system.cpu.dcache.LoadLockedReq_accesses::.cpu.data           14                       # number of LoadLockedReq accesses(hits+misses)
system.cpu.dcache.LoadLockedReq_accesses::total           14                       # number of LoadLockedReq accesses(hits+misses)
system.cpu.dcache.StoreCondReq_hits::.cpu.data           14                       # number of StoreCondReq hits
system.cpu.dcache.StoreCondReq_hits::total           14                       # number of StoreCondReq hits
system.cpu.dcache.StoreCondReq_accesses::.cpu.data           14                       # number of StoreCondReq accesses(hits+misses)
system.cpu.dcache.StoreCondReq_accesses::total           14                       # number of StoreCondReq accesses(hits+misses)
system.cpu.dcache.power_state.pwrStateResidencyTicks::UNDEFINED 174773455500                       # Cumulative time (in ticks) in various power states
system.cpu.dcache.tags.tagsinuse          1023.452426                       # Cycle average of tags in use
system.cpu.dcache.tags.total_refs            47307757                       # Total number of references to valid blocks.
system.cpu.dcache.tags.sampled_refs           1487628                       # Sample count of references to valid blocks.
system.cpu.dcache.tags.avg_refs             31.800798                       # Average number of references to valid blocks.
system.cpu.dcache.tags.warmup_cycle            176500                       # Cycle when the warmup percentage was hit.
system.cpu.dcache.tags.occ_blocks::.cpu.data  1023.452426                       # Average occupied blocks per requestor
system.cpu.dcache.tags.occ_percent::.cpu.data     0.999465                       # Average percentage of cache occupancy
system.cpu.dcache.tags.occ_percent::total     0.999465                       # Average percentage of cache occupancy
system.cpu.dcache.tags.occ_task_id_blocks::1024         1024                       # Occupied blocks per task id
system.cpu.dcache.tags.age_task_id_blocks_1024::0           85                       # Occupied blocks per task id
system.cpu.dcache.tags.age_task_id_blocks_1024::1          765                       # Occupied blocks per task id
system.cpu.dcache.tags.age_task_id_blocks_1024::2          172                       # Occupied blocks per task id
system.cpu.dcache.tags.age_task_id_blocks_1024::4            2                       # Occupied blocks per task id
system.cpu.dcache.tags.occ_task_id_percent::1024            1                       # Percentage of cache occupancy per task id
system.cpu.dcache.tags.tag_accesses         196668592                       # Number of tag accesses
system.cpu.dcache.tags.data_accesses        196668592                       # Number of data accesses
system.cpu.dcache.tags.power_state.pwrStateResidencyTicks::UNDEFINED 174773455500                       # Cumulative time (in ticks) in various power states
system.cpu.power_state.pwrStateResidencyTicks::ON 174773455500                       # Cumulative time (in ticks) in various power states
system.cpu.branchPred.lookups                  606556                       # Number of BP lookups
system.cpu.branchPred.condPredicted            604487                       # Number of conditional branches predicted
system.cpu.branchPred.condIncorrect               825                       # Number of conditional branches incorrect
system.cpu.branchPred.BTBLookups               602527                       # Number of BTB lookups
system.cpu.branchPred.BTBHits                  601446                       # Number of BTB hits
system.cpu.branchPred.BTBHitPct             99.820589                       # BTB Hit Percentage
system.cpu.branchPred.RASUsed                     559                       # Number of times the RAS was used to get a target.
system.cpu.branchPred.RASIncorrect                  2                       # Number of incorrect RAS predictions.
system.cpu.branchPred.indirectLookups             366                       # Number of indirect predictor lookups.
system.cpu.branchPred.indirectHits                174                       # Number of indirect target hits.
system.cpu.branchPred.indirectMisses              192                       # Number of indirect misses.
system.cpu.branchPred.indirectMispredicted          101                       # Number of mispredicted indirect branches.
system.cpu.fetch2.intInstructions            49669850                       # Number of integer instructions successfully decoded
system.cpu.fetch2.fpInstructions                    0                       # Number of floating point instructions successfully decoded
system.cpu.fetch2.vecInstructions                   0                       # Number of SIMD instructions successfully decoded
system.cpu.fetch2.loadInstructions           37092317                       # Number of memory load instructions successfully decoded
system.cpu.fetch2.storeInstructions          13161124                       # Number of memory store instructions successfully decoded
system.cpu.fetch2.amoInstructions                   0                       # Number of memory atomic instructions successfully decoded
system.cpu.itb.instHits                             0                       # ITB inst hits
system.cpu.itb.instMisses                           0                       # ITB inst misses
system.cpu.itb.readHits                             0                       # DTB read hits
system.cpu.itb.readMisses                           0                       # DTB read misses
system.cpu.itb.writeHits                            0                       # DTB write hits
system.cpu.itb.writeMisses                          0                       # DTB write misses
system.cpu.itb.inserts                              0                       # Number of times an entry is inserted into the TLB
system.cpu.itb.flushTlb                             0                       # Number of times complete TLB was flushed
system.cpu.itb.flushTlbMva                          0                       # Number of times TLB was flushed by MVA
system.cpu.itb.flushTlbMvaAsid                      0                       # Number of times TLB was flushed by MVA & ASID
system.cpu.itb.flushTlbAsid                         0                       # Number of times TLB was flushed by ASID
system.cpu.itb.flushedEntries                       0                       # Number of entries that have been flushed from TLB
system.cpu.itb.alignFaults                          0                       # Number of TLB faults due to alignment restrictions
system.cpu.itb.prefetchFaults                       0                       # Number of TLB faults due to prefetch
system.cpu.itb.domainFaults                         0                       # Number of TLB faults due to domain restrictions
system.cpu.itb.permsFaults                          0                       # Number of TLB faults due to permissions restrictions
system.cpu.itb.readAccesses                         0                       # DTB read accesses
system.cpu.itb.writeAccesses                        0                       # DTB write accesses
system.cpu.itb.instAccesses                         0                       # ITB inst accesses
system.cpu.itb.hits                                 0                       # Total TLB (inst and data) hits
system.cpu.itb.misses                               0                       # Total TLB (inst and data) misses
system.cpu.itb.accesses                             0                       # Total TLB (inst and data) accesses
system.cpu.itb.walker.walks                         0                       # Table walker walks requested
system.cpu.itb.walker.requestOrigin_Requested::Data            0                       # Table walker requests started/completed, data/inst
system.cpu.itb.walker.requestOrigin_Requested::Inst            0                       # Table walker requests started/completed, data/inst
system.cpu.itb.walker.requestOrigin_Requested::total            0                       # Table walker requests started/completed, data/inst
system.cpu.itb.walker.requestOrigin_Completed::Data            0                       # Table walker requests started/completed, data/inst
system.cpu.itb.walker.requestOrigin_Completed::Inst            0                       # Table walker requests started/completed, data/inst
system.cpu.itb.walker.requestOrigin_Completed::total            0                       # Table walker requests started/completed, data/inst
system.cpu.itb.walker.requestOrigin::total            0                       # Table walker requests started/completed, data/inst
system.cpu.itb.walker.power_state.pwrStateResidencyTicks::UNDEFINED 174773455500                       # Cumulative time (in ticks) in various power states
system.cpu.itb.stage2_mmu.stage2_tlb.instHits            0                       # ITB inst hits
system.cpu.itb.stage2_mmu.stage2_tlb.instMisses            0                       # ITB inst misses
system.cpu.itb.stage2_mmu.stage2_tlb.readHits            0                       # DTB read hits
system.cpu.itb.stage2_mmu.stage2_tlb.readMisses            0                       # DTB read misses
system.cpu.itb.stage2_mmu.stage2_tlb.writeHits            0                       # DTB write hits
system.cpu.itb.stage2_mmu.stage2_tlb.writeMisses            0                       # DTB write misses
system.cpu.itb.stage2_mmu.stage2_tlb.inserts            0                       # Number of times an entry is inserted into the TLB
system.cpu.itb.stage2_mmu.stage2_tlb.flushTlb            0                       # Number of times complete TLB was flushed
system.cpu.itb.stage2_mmu.stage2_tlb.flushTlbMva            0                       # Number of times TLB was flushed by MVA
system.cpu.itb.stage2_mmu.stage2_tlb.flushTlbMvaAsid            0                       # Number of times TLB was flushed by MVA & ASID
system.cpu.itb.stage2_mmu.stage2_tlb.flushTlbAsid            0                       # Number of times TLB was flushed by ASID
system.cpu.itb.stage2_mmu.stage2_tlb.flushedEntries            0                       # Number of entries that have been flushed from TLB
system.cpu.itb.stage2_mmu.stage2_tlb.alignFaults            0                       # Number of TLB faults due to alignment restrictions
system.cpu.itb.stage2_mmu.stage2_tlb.prefetchFaults            0                       # Number of TLB faults due to prefetch
system.cpu.itb.stage2_mmu.stage2_tlb.domainFaults            0                       # Number of TLB faults due to domain restrictions
system.cpu.itb.stage2_mmu.stage2_tlb.permsFaults            0                       # Number of TLB faults due to permissions restrictions
system.cpu.itb.stage2_mmu.stage2_tlb.readAccesses            0                       # DTB read accesses
system.cpu.itb.stage2_mmu.stage2_tlb.writeAccesses            0                       # DTB write accesses
system.cpu.itb.stage2_mmu.stage2_tlb.instAccesses            0                       # ITB inst accesses
system.cpu.itb.stage2_mmu.stage2_tlb.hits            0                       # Total TLB (inst and data) hits
system.cpu.itb.stage2_mmu.stage2_tlb.misses            0                       # Total TLB (inst and data) misses
system.cpu.itb.stage2_mmu.stage2_tlb.accesses            0                       # Total TLB (inst and data) accesses
system.cpu.itb.stage2_mmu.stage2_tlb.walker.walks            0                       # Table walker walks requested
system.cpu.itb.stage2_mmu.stage2_tlb.walker.requestOrigin_Requested::Data            0                       # Table walker requests started/completed, data/inst
system.cpu.itb.stage2_mmu.stage2_tlb.walker.requestOrigin_Requested::Inst            0                       # Table walker requests started/completed, data/inst
system.cpu.itb.stage2_mmu.stage2_tlb.walker.requestOrigin_Requested::total            0                       # Table walker requests started/completed, data/inst
system.cpu.itb.stage2_mmu.stage2_tlb.walker.requestOrigin_Completed::Data            0                       # Table walker requests started/completed, data/inst
system.cpu.itb.stage2_mmu.stage2_tlb.walker.requestOrigin_Completed::Inst            0                       # Table walker requests started/completed, data/inst
system.cpu.itb.stage2_mmu.stage2_tlb.walker.requestOrigin_Completed::total            0                       # Table walker requests started/completed, data/inst
system.cpu.itb.stage2_mmu.stage2_tlb.walker.requestOrigin::total            0                       # Table walker requests started/completed, data/inst
system.cpu.itb.stage2_mmu.stage2_tlb.walker.power_state.pwrStateResidencyTicks::UNDEFINED 174773455500                       # Cumulative time (in ticks) in various power states

---------- End Simulation Statistics   ----------
